[Format]      =  4.0
[Frequency]   =  0
[Precision]   =  1e-008
[MinAngle]    =  25
[DoSmartMesh] =  1
[Depth]       =  36
[LengthUnits] =  millimeters
[ProblemType] =  planar
[Coordinates] =  cartesian
[ACSolver]    =  0
[PrevType]    =  0
[PrevSoln]    =  ""
[Comment]     =  "Add comments here."
[PointProps]   = 0
[BdryProps]   = 17
  <BeginBdry>
    <BdryName> = "Air gap"
    <BdryType> = 6
    <A_0> = 0
    <A_1> = 0
    <A_2> = 0
    <Phi> = 0
    <c0> = 0
    <c0i> = 0
    <c1> = 0
    <c1i> = 0
    <Mu_ssd> = 0
    <Sigma_ssd> = 0
    <innerangle> = 15
    <outerangle> = 0
  <EndBdry>
  <BeginBdry>
    <BdryName> = "apbc1"
    <BdryType> = 4
    <A_0> = 0
    <A_1> = 0
    <A_2> = 0
    <Phi> = 0
    <c0> = 0
    <c0i> = 0
    <c1> = 0
    <c1i> = 0
    <Mu_ssd> = 0
    <Sigma_ssd> = 0
    <innerangle> = 0
    <outerangle> = 0
  <EndBdry>
  <BeginBdry>
    <BdryName> = "apbc2"
    <BdryType> = 4
    <A_0> = 0
    <A_1> = 0
    <A_2> = 0
    <Phi> = 0
    <c0> = 0
    <c0i> = 0
    <c1> = 0
    <c1i> = 0
    <Mu_ssd> = 0
    <Sigma_ssd> = 0
    <innerangle> = 0
    <outerangle> = 0
  <EndBdry>
  <BeginBdry>
    <BdryName> = "apbc3"
    <BdryType> = 4
    <A_0> = 0
    <A_1> = 0
    <A_2> = 0
    <Phi> = 0
    <c0> = 0
    <c0i> = 0
    <c1> = 0
    <c1i> = 0
    <Mu_ssd> = 0
    <Sigma_ssd> = 0
    <innerangle> = 0
    <outerangle> = 0
  <EndBdry>
  <BeginBdry>
    <BdryName> = "apbc4"
    <BdryType> = 4
    <A_0> = 0
    <A_1> = 0
    <A_2> = 0
    <Phi> = 0
    <c0> = 0
    <c0i> = 0
    <c1> = 0
    <c1i> = 0
    <Mu_ssd> = 0
    <Sigma_ssd> = 0
    <innerangle> = 0
    <outerangle> = 0
  <EndBdry>
  <BeginBdry>
    <BdryName> = "apbc6"
    <BdryType> = 4
    <A_0> = 0
    <A_1> = 0
    <A_2> = 0
    <Phi> = 0
    <c0> = 0
    <c0i> = 0
    <c1> = 0
    <c1i> = 0
    <Mu_ssd> = 0
    <Sigma_ssd> = 0
    <innerangle> = 0
    <outerangle> = 0
  <EndBdry>
  <BeginBdry>
    <BdryName> = "apbc7"
    <BdryType> = 4
    <A_0> = 0
    <A_1> = 0
    <A_2> = 0
    <Phi> = 0
    <c0> = 0
    <c0i> = 0
    <c1> = 0
    <c1i> = 0
    <Mu_ssd> = 0
    <Sigma_ssd> = 0
    <innerangle> = 0
    <outerangle> = 0
  <EndBdry>
  <BeginBdry>
    <BdryName> = "apbc8"
    <BdryType> = 4
    <A_0> = 0
    <A_1> = 0
    <A_2> = 0
    <Phi> = 0
    <c0> = 0
    <c0i> = 0
    <c1> = 0
    <c1i> = 0
    <Mu_ssd> = 0
    <Sigma_ssd> = 0
    <innerangle> = 0
    <outerangle> = 0
  <EndBdry>
  <BeginBdry>
    <BdryName> = "apbc3_01"
    <BdryType> = 4
    <A_0> = 0
    <A_1> = 0
    <A_2> = 0
    <Phi> = 0
    <c0> = 0
    <c0i> = 0
    <c1> = 0
    <c1i> = 0
    <Mu_ssd> = 0
    <Sigma_ssd> = 0
    <innerangle> = 0
    <outerangle> = 0
  <EndBdry>
  <BeginBdry>
    <BdryName> = "apbc3_02"
    <BdryType> = 4
    <A_0> = 0
    <A_1> = 0
    <A_2> = 0
    <Phi> = 0
    <c0> = 0
    <c0i> = 0
    <c1> = 0
    <c1i> = 0
    <Mu_ssd> = 0
    <Sigma_ssd> = 0
    <innerangle> = 0
    <outerangle> = 0
  <EndBdry>
  <BeginBdry>
    <BdryName> = "apbc3_03"
    <BdryType> = 4
    <A_0> = 0
    <A_1> = 0
    <A_2> = 0
    <Phi> = 0
    <c0> = 0
    <c0i> = 0
    <c1> = 0
    <c1i> = 0
    <Mu_ssd> = 0
    <Sigma_ssd> = 0
    <innerangle> = 0
    <outerangle> = 0
  <EndBdry>
  <BeginBdry>
    <BdryName> = "apbc3_04"
    <BdryType> = 4
    <A_0> = 0
    <A_1> = 0
    <A_2> = 0
    <Phi> = 0
    <c0> = 0
    <c0i> = 0
    <c1> = 0
    <c1i> = 0
    <Mu_ssd> = 0
    <Sigma_ssd> = 0
    <innerangle> = 0
    <outerangle> = 0
  <EndBdry>
  <BeginBdry>
    <BdryName> = "apbc3_05"
    <BdryType> = 4
    <A_0> = 0
    <A_1> = 0
    <A_2> = 0
    <Phi> = 0
    <c0> = 0
    <c0i> = 0
    <c1> = 0
    <c1i> = 0
    <Mu_ssd> = 0
    <Sigma_ssd> = 0
    <innerangle> = 0
    <outerangle> = 0
  <EndBdry>
  <BeginBdry>
    <BdryName> = "apbc3_06"
    <BdryType> = 4
    <A_0> = 0
    <A_1> = 0
    <A_2> = 0
    <Phi> = 0
    <c0> = 0
    <c0i> = 0
    <c1> = 0
    <c1i> = 0
    <Mu_ssd> = 0
    <Sigma_ssd> = 0
    <innerangle> = 0
    <outerangle> = 0
  <EndBdry>
  <BeginBdry>
    <BdryName> = "apbc3_07"
    <BdryType> = 4
    <A_0> = 0
    <A_1> = 0
    <A_2> = 0
    <Phi> = 0
    <c0> = 0
    <c0i> = 0
    <c1> = 0
    <c1i> = 0
    <Mu_ssd> = 0
    <Sigma_ssd> = 0
    <innerangle> = 0
    <outerangle> = 0
  <EndBdry>
  <BeginBdry>
    <BdryName> = "apbc3_08"
    <BdryType> = 4
    <A_0> = 0
    <A_1> = 0
    <A_2> = 0
    <Phi> = 0
    <c0> = 0
    <c0i> = 0
    <c1> = 0
    <c1i> = 0
    <Mu_ssd> = 0
    <Sigma_ssd> = 0
    <innerangle> = 0
    <outerangle> = 0
  <EndBdry>
  <BeginBdry>
    <BdryName> = "apbc3_09"
    <BdryType> = 4
    <A_0> = 0
    <A_1> = 0
    <A_2> = 0
    <Phi> = 0
    <c0> = 0
    <c0i> = 0
    <c1> = 0
    <c1i> = 0
    <Mu_ssd> = 0
    <Sigma_ssd> = 0
    <innerangle> = 0
    <outerangle> = 0
  <EndBdry>
[BlockProps]  = 7
  <BeginBlock>
    <BlockName> = "Air"
    <Mu_x> = 1
    <Mu_y> = 1
    <H_c> = 0
    <H_cAngle> = 0
    <J_re> = 0
    <J_im> = 0
    <Sigma> = 0
    <d_lam> = 0
    <Phi_h> = 0
    <Phi_hx> = 0
    <Phi_hy> = 0
    <LamType> = 0
    <LamFill> = 1
    <NStrands> = 0
    <WireD> = 0
    <BHPoints> = 0
  <EndBlock>
  <BeginBlock>
    <BlockName> = "Pure Iron"
    <Mu_x> = 14872
    <Mu_y> = 14872
    <H_c> = 0
    <H_cAngle> = 0
    <J_re> = 0
    <J_im> = 0
    <Sigma> = 10.44
    <d_lam> = 0
    <Phi_h> = 0
    <Phi_hx> = 0
    <Phi_hy> = 0
    <LamType> = 0
    <LamFill> = 1
    <NStrands> = 0
    <WireD> = 0
    <BHPoints> = 21
      0	0
      0.22706499999999999	13.898400000000001
      0.45412999999999998	27.796700000000001
      0.68119499999999999	42.397399999999998
      0.90825999999999996	61.415700000000001
      1.13533	82.382400000000004
      1.36239	144.66900000000001
      1.58935	897.75999999999999
      1.81236	4581.7399999999998
      2.01004	17736.200000000001
      2.1331600000000002	41339.300000000003
      2.1999900000000001	68321.800000000003
      2.2547899999999998	95685.5
      2.2999299999999998	123355
      2.3425099999999999	151083
      2.3787600000000002	178954
      2.4150100000000001	206825
      2.45126	234696
      2.4874999999999998	262568
      2.5237500000000002	290439
      2.5600000000000001	318310
  <EndBlock>
  <BeginBlock>
    <BlockName> = "Copper"
    <Mu_x> = 1
    <Mu_y> = 1
    <H_c> = 0
    <H_cAngle> = 0
    <J_re> = 0
    <J_im> = 0
    <Sigma> = 58
    <d_lam> = 0
    <Phi_h> = 0
    <Phi_hx> = 0
    <Phi_hy> = 0
    <LamType> = 0
    <LamFill> = 1
    <NStrands> = 0
    <WireD> = 0
    <BHPoints> = 0
  <EndBlock>
  <BeginBlock>
    <BlockName> = "N40"
    <Mu_x> = 1.05
    <Mu_y> = 1.05
    <H_c> = 969969
    <H_cAngle> = 0
    <J_re> = 0
    <J_im> = 0
    <Sigma> = 0.66700000000000004
    <d_lam> = 0
    <Phi_h> = 0
    <Phi_hx> = 0
    <Phi_hy> = 0
    <LamType> = 0
    <LamFill> = 1
    <NStrands> = 0
    <WireD> = 0
    <BHPoints> = 0
  <EndBlock>
  <BeginBlock>
    <BlockName> = "Air"
    <Mu_x> = 1
    <Mu_y> = 1
    <H_c> = 0
    <H_cAngle> = 0
    <J_re> = 0
    <J_im> = 0
    <Sigma> = 0
    <d_lam> = 0
    <Phi_h> = 0
    <Phi_hx> = 0
    <Phi_hy> = 0
    <LamType> = 0
    <LamFill> = 1
    <NStrands> = 0
    <WireD> = 0
    <BHPoints> = 0
  <EndBlock>
  <BeginBlock>
    <BlockName> = "N40"
    <Mu_x> = 1.05
    <Mu_y> = 1.05
    <H_c> = 969969
    <H_cAngle> = 0
    <J_re> = 0
    <J_im> = 0
    <Sigma> = 0.66700000000000004
    <d_lam> = 0
    <Phi_h> = 0
    <Phi_hx> = 0
    <Phi_hy> = 0
    <LamType> = 0
    <LamFill> = 1
    <NStrands> = 0
    <WireD> = 0
    <BHPoints> = 0
  <EndBlock>
  <BeginBlock>
    <BlockName> = "Air"
    <Mu_x> = 1
    <Mu_y> = 1
    <H_c> = 0
    <H_cAngle> = 0
    <J_re> = 0
    <J_im> = 0
    <Sigma> = 0
    <d_lam> = 0
    <Phi_h> = 0
    <Phi_hx> = 0
    <Phi_hy> = 0
    <LamType> = 0
    <LamFill> = 1
    <NStrands> = 0
    <WireD> = 0
    <BHPoints> = 0
  <EndBlock>
[CircuitProps]  = 6
  <BeginCircuit>
    <CircuitName> = "A+"
    <TotalAmps_re> = 0
    <TotalAmps_im> = 0
    <CircuitType> = 1
  <EndCircuit>
  <BeginCircuit>
    <CircuitName> = "B+"
    <TotalAmps_re> = -8.6602540378443873
    <TotalAmps_im> = -0
    <CircuitType> = 1
  <EndCircuit>
  <BeginCircuit>
    <CircuitName> = "C+"
    <TotalAmps_re> = 8.6602540378443855
    <TotalAmps_im> = 0
    <CircuitType> = 1
  <EndCircuit>
  <BeginCircuit>
    <CircuitName> = "A-"
    <TotalAmps_re> = 0
    <TotalAmps_im> = 0
    <CircuitType> = 1
  <EndCircuit>
  <BeginCircuit>
    <CircuitName> = "B-"
    <TotalAmps_re> = 8.6602540378443873
    <TotalAmps_im> = 0
    <CircuitType> = 1
  <EndCircuit>
  <BeginCircuit>
    <CircuitName> = "C-"
    <TotalAmps_re> = -8.6602540378443855
    <TotalAmps_im> = -0
    <CircuitType> = 1
  <EndCircuit>
[NumPoints] = 417
74	0	0	0
0	74	0	0
54	0	0	0
0	54	0	0
31.5	0	0	0
0	31.5	0	0
30.800000000000001	0	0	0
0	30.800000000000001	0	0
31.266666666666666	0	0	0
0	31.266666666666666	0	0
31.033333333333335	0	0	0
0	31.033333333333335	0	0
15.800000000000001	0	0	0
0	15.800000000000001	0	0
0	0	0	0
27.944812599678542	1.2604663763789199	0	0
28.005526384150087	1.1382291304083016	0	0
28.082319313335297	1.0253976013284665	0	0
28.173760880261256	0.92407362704071883	0	0
28.278147701550218	0.83614468147371901	0	0
28.393535248229025	0.76324871451542586	0	0
28.517774068624671	0.70674364010580559	0	0
28.648549828582063	0.66768204086940375	0	0
28.783426423130432	0.64679156049260977	0	0
28.919891356509662	0.64446134909853681	0	0
29.055402545212466	0.66073481411652712	0	0
29.187435672190325	0.69530881168387404	0	0
29.31353121010391	0.74753929364241312	0	0
29.431340237663818	0.81645330493712398	0	0
29.538668195589846	0.90076710792790304	0	0
29.633515767098121	0.99891009599287339	0	0
29.714116121389949	1.1090540509580495	0	0
29.778967826366593	1.2291471993427963	0	0
29.826862817468477	1.3569524330176685	0	0
29.856908901632181	1.4900889822960919	0	0
29.868546377159106	1.6260767651690351	0	0
29.861558459899136	1.7623825865403409	0	0
29.836075321529179	1.8964673268583798	0	0
29.792571664701114	2.0258332411090993	0	0
22.499009875437714	19.634049030754984	0	0
22.438296090966169	19.7562862767256	0	0
22.361503161780959	19.869117805805438	0	0
22.270061594855001	19.970441780093186	0	0
22.165674773566039	20.058370725660183	0	0
22.050287226887232	20.131266692618475	0	0
21.926048406491585	20.187771767028096	0	0
21.795272646534194	20.226833366264501	0	0
21.660396051985824	20.247723846641293	0	0
21.523931118606594	20.250054058035364	0	0
21.38841992990379	20.233780593017375	0	0
21.256386802925931	20.199206595450029	0	0
21.130291265012346	20.14697611349149	0	0
21.012482237452438	20.078062102196778	0	0
20.90515427952641	19.993748299206	0	0
20.810306708018135	19.895605311141026	0	0
20.729706353726307	19.785461356175851	0	0
20.664854648749664	19.665368207791104	0	0
20.616959657647779	19.537562974116234	0	0
20.586913573484075	19.404426424837808	0	0
20.575276097957151	19.268438641964867	0	0
20.58226401521712	19.132132820593561	0	0
20.607747153587077	18.99804808027552	0	0
20.651250810415142	18.868682166024801	0	0
18.868682166024801	20.651250810415142	0	0
18.99804808027552	20.607747153587077	0	0
19.132132820593561	20.58226401521712	0	0
19.268438641964867	20.575276097957151	0	0
19.404426424837808	20.586913573484075	0	0
19.537562974116234	20.616959657647779	0	0
19.665368207791104	20.664854648749664	0	0
19.785461356175851	20.729706353726307	0	0
19.895605311141026	20.810306708018135	0	0
19.993748299206	20.90515427952641	0	0
20.078062102196778	21.012482237452438	0	0
20.14697611349149	21.130291265012346	0	0
20.199206595450029	21.256386802925931	0	0
20.233780593017375	21.38841992990379	0	0
20.250054058035364	21.523931118606594	0	0
20.247723846641293	21.660396051985824	0	0
20.226833366264501	21.795272646534194	0	0
20.187771767028096	21.926048406491585	0	0
20.131266692618475	22.050287226887232	0	0
20.058370725660183	22.165674773566039	0	0
19.970441780093186	22.270061594855001	0	0
19.869117805805438	22.361503161780959	0	0
19.7562862767256	22.438296090966169	0	0
19.634049030754984	22.499009875437714	0	0
2.0258332411090993	29.792571664701114	0	0
1.89646732685838	29.836075321529179	0	0
1.7623825865403406	29.861558459899136	0	0
1.6260767651690351	29.868546377159106	0	0
1.4900889822960921	29.856908901632181	0	0
1.3569524330176685	29.826862817468477	0	0
1.2291471993427963	29.778967826366593	0	0
1.1090540509580495	29.714116121389949	0	0
0.99891009599287339	29.633515767098121	0	0
0.90076710792790304	29.538668195589846	0	0
0.81645330493712398	29.431340237663818	0	0
0.74753929364241312	29.31353121010391	0	0
0.69530881168387404	29.187435672190325	0	0
0.66073481411652712	29.055402545212466	0	0
0.64446134909853681	28.919891356509662	0	0
0.64679156049260977	28.783426423130432	0	0
0.66768204086940375	28.648549828582063	0	0
0.70674364010580559	28.517774068624671	0	0
0.76324871451542586	28.393535248229025	0	0
0.83614468147371901	28.278147701550218	0	0
0.92407362704071883	28.173760880261256	0	0
1.0253976013284665	28.082319313335297	0	0
1.1382291304083016	28.005526384150087	0	0
1.2604663763789199	27.944812599678542	0	0
34	0	0	0
36.5	0	0	0
39	0	0	0
41.5	0	0	0
44	0	0	0
46.5	0	0	0
49	0	0	0
51.5	0	0	0
31.456830344769077	1.6485826216527308	0	0
33.953404181655507	1.7794225122600904	0	0
36.449978018541948	1.91026240286745	0	0
38.946551855428382	2.0411022934748098	0	0
41.443125692314815	2.1719421840821691	0	0
43.939699529201249	2.3027820746895289	0	0
46.436273366087683	2.4336219652968882	0	0
48.932847202974116	2.564461855904248	0	0
51.42942103986055	2.6953017465116074	0	0
53.925994876746984	2.8261416371189672	0	0
31.327439704100609	3.2926465929310846	0	0
33.813744442521291	3.5539677511002186	0	0
36.300049180941976	3.815288909269352	0	0
38.786353919362661	4.0766100674384855	0	0
41.272658657783339	4.3379312256076199	0	0
43.758963396204024	4.5992523837767534	0	0
46.245268134624709	4.8605735419458869	0	0
48.731572873045394	5.1218947001150203	0	0
51.217877611466072	5.3832158582841547	0	0
53.704182349886757	5.6445370164532882	0	0
31.112182728746841	4.9276856487672722	0	0
33.581403580234685	5.3187718113678493	0	0
36.050624431722525	5.7098579739684263	0	0
38.519845283210373	6.1009441365690043	0	0
40.98906613469822	6.4920302991695813	0	0
43.45828698618606	6.8831164617701583	0	0
45.927507837673907	7.2742026243707354	0	0
48.396728689161748	7.6652887869713124	0	0
50.865949540649595	8.0563749495718895	0	0
53.335170392137442	8.4474611121724674	0	0
30.811649423114879	6.5492182607594192	0	0
33.257018424949393	7.0689974878038173	0	0
35.702387426783908	7.5887767148482164	0	0
38.147756428618422	8.1085559418926145	0	0
40.593125430452936	8.6283351689370136	0	0
43.03849443228745	9.1481143959814109	0	0
45.483863434121965	9.6678936230258099	0	0
47.929232435956479	10.187672850070207	0	0
50.374601437790993	10.707452077114606	0	0
52.819970439625507	11.227231304159005	0	0
30.426663528105653	8.1527999207294037	0	0
32.841478093828322	8.7998475334857051	0	0
35.256292659550994	9.4468951462420065	0	0
37.671107225273666	10.09394275899831	0	0
40.085921790996338	10.740990371754611	0	0
42.500736356719003	11.388037984510913	0	0
44.915550922441675	12.035085597267214	0	0
47.330365488164347	12.682133210023515	0	0
49.745180053887019	13.329180822779819	0	0
52.159994619609691	13.97622843553612	0	0
29.958280263297336	9.7340353228108434	0	0
32.335921554035217	10.506577808748212	0	0
34.713562844773101	11.27912029468558	0	0
37.091204135510985	12.051662780622948	0	0
39.468845426248869	12.824205266560316	0	0
41.846486716986753	13.596747752497686	0	0
44.224128007724637	14.369290238435054	0	0
46.601769298462521	15.141832724372422	0	0
48.979410589200405	15.914375210309791	0	0
51.35705187993829	16.686917696247161	0	0
29.407783434661855	11.288590410676958	0	0
31.741734500904858	12.18451028454021	0	0
34.075685567147865	13.080430158403459	0	0
36.409636633390868	13.97635003226671	0	0
38.743587699633871	14.872269906129961	0	0
41.077538765876874	15.768189779993211	0	0
43.411489832119884	16.664109653856464	0	0
45.745440898362887	17.560029527719713	0	0
48.07939196460589	18.455949401582963	0	0
50.413343030848893	19.351869275446216	0	0
28.776681915741928	12.812204256887707	0	0
31.060545559848428	13.829045864577207	0	0
33.344409203954932	14.845887472266707	0	0
35.628272848061435	15.862729079956209	0	0
37.912136492167939	16.87957068764571	0	0
40.196000136274435	17.89641229533521	0	0
42.479863780380938	18.91325390302471	0	0
44.763727424487442	19.93009551071421	0	0
47.047591068593945	20.94693711840371	0	0
49.331454712700449	21.96377872609321	0	0
28.066705511933588	14.300700741795724	0	0
30.294221822404509	15.435676991144591	0	0
32.521738132875427	16.57065324049346	0	0
34.749254443346345	17.705629489842327	0	0
36.97677075381727	18.840605739191194	0	0
39.204287064288188	19.975581988540061	0	0
41.431803374759106	21.110558237888927	0	0
43.659319685230024	22.245534487237794	0	0
45.886835995700949	23.380510736586661	0	0
48.114352306171867	24.515486985935528	0	0
27.279800219209815	15.75	0	0
29.444863728670914	17	0	0
31.609927238132009	18.25	0	0
33.774990747593108	19.5	0	0
35.9400542570542	20.75	0	0
38.105117766515299	22	0	0
40.270181275976398	23.25	0	0
42.43524478543749	24.5	0	0
44.600308294898589	25.75	0	0
46.765371804359681	27	0	0
26.418122890280859	17.156129602973355	0	0
28.514799310144419	18.517727190510922	0	0
30.611475730007978	19.879324778048488	0	0
32.708152149871538	21.240922365586055	0	0
34.804828569735101	22.602519953123625	0	0
36.901504989598656	23.964117540661192	0	0
38.998181409462219	25.325715128198759	0	0
41.094857829325775	26.687312715736326	0	0
43.191534249189338	28.048910303273896	0	0
45.288210669052901	29.410507890811463	0	0
25.484035322810843	18.515235447212905	0	0
27.506577808748212	19.984698577944087	0	0
29.529120294685583	21.454161708675269	0	0
31.551662780622951	22.923624839406454	0	0
33.57420526656032	24.393087970137636	0	0
35.596747752497691	25.862551100868817	0	0
37.619290238435056	27.332014231600002	0	0
39.641832724372428	28.801477362331184	0	0
41.664375210309792	30.270940493062366	0	0
43.686917696247164	31.740403623793551	0	0
24.480097785894582	19.823592318069878	0	0
26.422962689537009	21.396893295694472	0	0
28.365827593179439	22.970194273319066	0	0
30.308692496821866	24.543495250943657	0	0
32.251557400464293	26.116796228568251	0	0
34.194422304106723	27.690097206192846	0	0
36.137287207749146	29.26339818381744	0	0
38.080152111391577	30.836699161442031	0	0
40.023017015034	32.410000139066625	0	0
41.96588191867643	33.983301116691216	0	0
23.409062002537919	21.077614100304036	0	0
25.266924066231404	22.750440616201182	0	0
27.124786129924889	24.423267132098324	0	0
28.982648193618374	26.09609364799547	0	0
30.840510257311863	27.768920163892616	0	0
32.698372321005344	29.441746679789762	0	0
34.556234384698833	31.114573195686908	0	0
36.414096448392321	32.787399711584051	0	0
38.271958512085803	34.460226227481201	0	0
40.129820575779291	36.133052743378343	0	0
22.273863607376249	22.273863607376249	0	0
24.041630560342618	24.041630560342618	0	0
25.809397513308987	25.809397513308987	0	0
27.577164466275356	27.577164466275356	0	0
29.344931419241725	29.344931419241725	0	0
31.112698372208094	31.112698372208094	0	0
32.880465325174463	32.880465325174463	0	0
34.648232278140831	34.648232278140831	0	0
36.4159992311072	36.4159992311072	0	0
38.183766184073569	38.183766184073569	0	0
21.077614100304036	23.409062002537919	0	0
22.750440616201182	25.266924066231404	0	0
24.423267132098324	27.124786129924889	0	0
26.09609364799547	28.982648193618374	0	0
27.768920163892616	30.840510257311863	0	0
29.441746679789762	32.698372321005344	0	0
31.114573195686908	34.556234384698833	0	0
32.787399711584051	36.414096448392321	0	0
34.460226227481201	38.271958512085803	0	0
36.133052743378343	40.129820575779291	0	0
19.823592318069878	24.480097785894582	0	0
21.396893295694472	26.422962689537009	0	0
22.970194273319066	28.365827593179439	0	0
24.543495250943657	30.308692496821866	0	0
26.116796228568251	32.251557400464293	0	0
27.690097206192846	34.194422304106723	0	0
29.26339818381744	36.137287207749146	0	0
30.836699161442031	38.080152111391577	0	0
32.410000139066625	40.023017015034	0	0
33.983301116691216	41.96588191867643	0	0
18.515235447212905	25.484035322810843	0	0
19.984698577944087	27.506577808748212	0	0
21.454161708675269	29.529120294685583	0	0
22.923624839406454	31.551662780622951	0	0
24.393087970137636	33.57420526656032	0	0
25.862551100868817	35.596747752497691	0	0
27.332014231600002	37.619290238435056	0	0
28.801477362331184	39.641832724372428	0	0
30.270940493062366	41.664375210309792	0	0
31.740403623793551	43.686917696247164	0	0
17.156129602973355	26.418122890280859	0	0
18.517727190510922	28.514799310144419	0	0
19.879324778048488	30.611475730007978	0	0
21.240922365586055	32.708152149871538	0	0
22.602519953123625	34.804828569735101	0	0
23.964117540661192	36.901504989598656	0	0
25.325715128198759	38.998181409462219	0	0
26.687312715736326	41.094857829325775	0	0
28.048910303273896	43.191534249189338	0	0
29.410507890811463	45.288210669052901	0	0
15.75	27.279800219209815	0	0
17	29.444863728670914	0	0
18.25	31.609927238132009	0	0
19.5	33.774990747593108	0	0
20.75	35.9400542570542	0	0
22	38.105117766515299	0	0
23.25	40.270181275976398	0	0
24.5	42.43524478543749	0	0
25.75	44.600308294898589	0	0
27	46.765371804359681	0	0
14.300700741795724	28.066705511933588	0	0
15.435676991144591	30.294221822404509	0	0
16.57065324049346	32.521738132875427	0	0
17.705629489842327	34.749254443346345	0	0
18.840605739191194	36.97677075381727	0	0
19.975581988540061	39.204287064288188	0	0
21.110558237888927	41.431803374759106	0	0
22.245534487237794	43.659319685230024	0	0
23.380510736586661	45.886835995700949	0	0
24.515486985935528	48.114352306171867	0	0
12.812204256887707	28.776681915741928	0	0
13.829045864577207	31.060545559848428	0	0
14.845887472266707	33.344409203954932	0	0
15.862729079956209	35.628272848061435	0	0
16.87957068764571	37.912136492167939	0	0
17.89641229533521	40.196000136274435	0	0
18.91325390302471	42.479863780380938	0	0
19.93009551071421	44.763727424487442	0	0
20.94693711840371	47.047591068593945	0	0
21.96377872609321	49.331454712700449	0	0
11.288590410676958	29.407783434661855	0	0
12.18451028454021	31.741734500904858	0	0
13.080430158403459	34.075685567147865	0	0
13.97635003226671	36.409636633390868	0	0
14.872269906129961	38.743587699633871	0	0
15.768189779993211	41.077538765876874	0	0
16.664109653856464	43.411489832119884	0	0
17.560029527719713	45.745440898362887	0	0
18.455949401582963	48.07939196460589	0	0
19.351869275446216	50.413343030848893	0	0
9.7340353228108434	29.958280263297336	0	0
10.506577808748212	32.335921554035217	0	0
11.27912029468558	34.713562844773101	0	0
12.051662780622948	37.091204135510985	0	0
12.824205266560316	39.468845426248869	0	0
13.596747752497686	41.846486716986753	0	0
14.369290238435054	44.224128007724637	0	0
15.141832724372422	46.601769298462521	0	0
15.914375210309791	48.979410589200405	0	0
16.686917696247161	51.35705187993829	0	0
8.1527999207294037	30.426663528105653	0	0
8.7998475334857051	32.841478093828322	0	0
9.4468951462420065	35.256292659550994	0	0
10.09394275899831	37.671107225273666	0	0
10.740990371754611	40.085921790996338	0	0
11.388037984510913	42.500736356719003	0	0
12.035085597267214	44.915550922441675	0	0
12.682133210023515	47.330365488164347	0	0
13.329180822779819	49.745180053887019	0	0
13.97622843553612	52.159994619609691	0	0
6.5492182607594192	30.811649423114879	0	0
7.0689974878038173	33.257018424949393	0	0
7.5887767148482164	35.702387426783908	0	0
8.1085559418926145	38.147756428618422	0	0
8.6283351689370136	40.593125430452936	0	0
9.1481143959814109	43.03849443228745	0	0
9.6678936230258099	45.483863434121965	0	0
10.187672850070207	47.929232435956479	0	0
10.707452077114606	50.374601437790993	0	0
11.227231304159005	52.819970439625507	0	0
4.9276856487672722	31.112182728746841	0	0
5.3187718113678493	33.581403580234685	0	0
5.7098579739684263	36.050624431722525	0	0
6.1009441365690043	38.519845283210373	0	0
6.4920302991695813	40.98906613469822	0	0
6.8831164617701583	43.45828698618606	0	0
7.2742026243707354	45.927507837673907	0	0
7.6652887869713124	48.396728689161748	0	0
8.0563749495718895	50.865949540649595	0	0
8.4474611121724674	53.335170392137442	0	0
3.2926465929310846	31.327439704100609	0	0
3.5539677511002186	33.813744442521291	0	0
3.815288909269352	36.300049180941976	0	0
4.0766100674384855	38.786353919362661	0	0
4.3379312256076199	41.272658657783339	0	0
4.5992523837767534	43.758963396204024	0	0
4.8605735419458869	46.245268134624709	0	0
5.1218947001150203	48.731572873045394	0	0
5.3832158582841547	51.217877611466072	0	0
5.6445370164532882	53.704182349886757	0	0
1.6485826216527308	31.456830344769077	0	0
1.7794225122600904	33.953404181655507	0	0
1.91026240286745	36.449978018541948	0	0
2.0411022934748098	38.946551855428382	0	0
2.1719421840821691	41.443125692314815	0	0
2.3027820746895289	43.939699529201249	0	0
2.4336219652968882	46.436273366087683	0	0
2.564461855904248	48.932847202974116	0	0
2.6953017465116074	51.42942103986055	0	0
2.8261416371189672	53.925994876746984	0	0
0	34	0	0
0	36.5	0	0
0	39	0	0
0	41.5	0	0
0	44	0	0
0	46.5	0	0
0	49	0	0
0	51.5	0	0
[NumSegments] = 391
0	2	-1	2	0	0
1	3	-1	2	0	0
2	118	-1	17	0	0
4	8	-1	5	0	0
3	416	-1	17	0	0
5	9	-1	5	0	0
8	10	-1	0	0	0
9	11	-1	0	0	0
10	6	-1	6	0	0
11	7	-1	6	0	0
12	14	-1	8	0	1
13	14	-1	8	0	1
6	12	-1	7	0	1
7	13	-1	7	0	1
15	16	-1	0	48	1
16	17	-1	0	48	1
17	18	-1	0	48	1
18	19	-1	0	48	1
19	20	-1	0	48	1
20	21	-1	0	48	1
21	22	-1	0	48	1
22	23	-1	0	48	1
23	24	-1	0	48	1
24	25	-1	0	48	1
25	26	-1	0	48	1
26	27	-1	0	48	1
27	28	-1	0	48	1
28	29	-1	0	48	1
29	30	-1	0	48	1
30	31	-1	0	48	1
31	32	-1	0	48	1
32	33	-1	0	48	1
33	34	-1	0	48	1
34	35	-1	0	48	1
35	36	-1	0	48	1
36	37	-1	0	48	1
37	38	-1	0	48	1
38	39	-1	0	48	1
39	40	-1	0	48	1
40	41	-1	0	48	1
41	42	-1	0	48	1
42	43	-1	0	48	1
43	44	-1	0	48	1
44	45	-1	0	48	1
45	46	-1	0	48	1
46	47	-1	0	48	1
47	48	-1	0	48	1
48	49	-1	0	48	1
49	50	-1	0	48	1
50	51	-1	0	48	1
51	52	-1	0	48	1
52	53	-1	0	48	1
53	54	-1	0	48	1
54	55	-1	0	48	1
55	56	-1	0	48	1
56	57	-1	0	48	1
57	58	-1	0	48	1
58	59	-1	0	48	1
59	60	-1	0	48	1
60	61	-1	0	48	1
61	62	-1	0	48	1
62	15	-1	0	48	1
38	15	-1	0	48	1
62	39	-1	0	48	1
63	64	-1	0	48	1
64	65	-1	0	48	1
65	66	-1	0	48	1
66	67	-1	0	48	1
67	68	-1	0	48	1
68	69	-1	0	48	1
69	70	-1	0	48	1
70	71	-1	0	48	1
71	72	-1	0	48	1
72	73	-1	0	48	1
73	74	-1	0	48	1
74	75	-1	0	48	1
75	76	-1	0	48	1
76	77	-1	0	48	1
77	78	-1	0	48	1
78	79	-1	0	48	1
79	80	-1	0	48	1
80	81	-1	0	48	1
81	82	-1	0	48	1
82	83	-1	0	48	1
83	84	-1	0	48	1
84	85	-1	0	48	1
85	86	-1	0	48	1
86	87	-1	0	48	1
87	88	-1	0	48	1
88	89	-1	0	48	1
89	90	-1	0	48	1
90	91	-1	0	48	1
91	92	-1	0	48	1
92	93	-1	0	48	1
93	94	-1	0	48	1
94	95	-1	0	48	1
95	96	-1	0	48	1
96	97	-1	0	48	1
97	98	-1	0	48	1
98	99	-1	0	48	1
99	100	-1	0	48	1
100	101	-1	0	48	1
101	102	-1	0	48	1
102	103	-1	0	48	1
103	104	-1	0	48	1
104	105	-1	0	48	1
105	106	-1	0	48	1
106	107	-1	0	48	1
107	108	-1	0	48	1
108	109	-1	0	48	1
109	110	-1	0	48	1
110	63	-1	0	48	1
86	63	-1	0	48	1
110	87	-1	0	48	1
111	4	-1	9	0	0
112	111	-1	10	0	0
113	112	-1	11	0	0
114	113	-1	12	0	0
115	114	-1	13	0	0
116	115	-1	14	0	0
117	116	-1	15	0	0
118	117	-1	16	0	0
119	120	-1	0	0	0
120	121	-1	0	0	0
121	122	-1	0	0	0
122	123	-1	0	0	0
123	124	-1	0	0	0
124	125	-1	0	0	0
125	126	-1	0	0	0
126	127	-1	0	0	0
127	128	-1	0	0	0
129	130	-1	0	0	0
130	131	-1	0	0	0
131	132	-1	0	0	0
132	133	-1	0	0	0
133	134	-1	0	0	0
134	135	-1	0	0	0
135	136	-1	0	0	0
136	137	-1	0	0	0
137	138	-1	0	0	0
139	140	-1	0	0	0
140	141	-1	0	0	0
141	142	-1	0	0	0
142	143	-1	0	0	0
143	144	-1	0	0	0
144	145	-1	0	0	0
145	146	-1	0	0	0
146	147	-1	0	0	0
147	148	-1	0	0	0
149	150	-1	0	0	0
150	151	-1	0	0	0
151	152	-1	0	0	0
152	153	-1	0	0	0
153	154	-1	0	0	0
154	155	-1	0	0	0
155	156	-1	0	0	0
156	157	-1	0	0	0
157	158	-1	0	0	0
159	160	-1	0	0	0
160	161	-1	0	0	0
161	162	-1	0	0	0
162	163	-1	0	0	0
163	164	-1	0	0	0
164	165	-1	0	0	0
165	166	-1	0	0	0
166	167	-1	0	0	0
167	168	-1	0	0	0
169	170	-1	0	0	0
170	171	-1	0	0	0
171	172	-1	0	0	0
172	173	-1	0	0	0
173	174	-1	0	0	0
174	175	-1	0	0	0
175	176	-1	0	0	0
176	177	-1	0	0	0
177	178	-1	0	0	0
179	180	-1	0	0	0
180	181	-1	0	0	0
181	182	-1	0	0	0
182	183	-1	0	0	0
183	184	-1	0	0	0
184	185	-1	0	0	0
185	186	-1	0	0	0
186	187	-1	0	0	0
187	188	-1	0	0	0
189	190	-1	0	0	0
190	191	-1	0	0	0
191	192	-1	0	0	0
192	193	-1	0	0	0
193	194	-1	0	0	0
194	195	-1	0	0	0
195	196	-1	0	0	0
196	197	-1	0	0	0
197	198	-1	0	0	0
199	200	-1	0	0	0
200	201	-1	0	0	0
201	202	-1	0	0	0
202	203	-1	0	0	0
203	204	-1	0	0	0
204	205	-1	0	0	0
205	206	-1	0	0	0
206	207	-1	0	0	0
207	208	-1	0	0	0
209	210	-1	0	0	0
210	211	-1	0	0	0
211	212	-1	0	0	0
212	213	-1	0	0	0
213	214	-1	0	0	0
214	215	-1	0	0	0
215	216	-1	0	0	0
216	217	-1	0	0	0
217	218	-1	0	0	0
219	220	-1	0	0	0
220	221	-1	0	0	0
221	222	-1	0	0	0
222	223	-1	0	0	0
223	224	-1	0	0	0
224	225	-1	0	0	0
225	226	-1	0	0	0
226	227	-1	0	0	0
227	228	-1	0	0	0
229	230	-1	0	0	0
230	231	-1	0	0	0
231	232	-1	0	0	0
232	233	-1	0	0	0
233	234	-1	0	0	0
234	235	-1	0	0	0
235	236	-1	0	0	0
236	237	-1	0	0	0
237	238	-1	0	0	0
239	240	-1	0	0	0
240	241	-1	0	0	0
241	242	-1	0	0	0
242	243	-1	0	0	0
243	244	-1	0	0	0
244	245	-1	0	0	0
245	246	-1	0	0	0
246	247	-1	0	0	0
247	248	-1	0	0	0
249	250	-1	0	0	0
250	251	-1	0	0	0
251	252	-1	0	0	0
252	253	-1	0	0	0
253	254	-1	0	0	0
254	255	-1	0	0	0
255	256	-1	0	0	0
256	257	-1	0	0	0
257	258	-1	0	0	0
259	260	-1	0	0	0
260	261	-1	0	0	0
261	262	-1	0	0	0
262	263	-1	0	0	0
263	264	-1	0	0	0
264	265	-1	0	0	0
265	266	-1	0	0	0
266	267	-1	0	0	0
267	268	-1	0	0	0
269	270	-1	0	0	0
270	271	-1	0	0	0
271	272	-1	0	0	0
272	273	-1	0	0	0
273	274	-1	0	0	0
274	275	-1	0	0	0
275	276	-1	0	0	0
276	277	-1	0	0	0
277	278	-1	0	0	0
279	280	-1	0	0	0
280	281	-1	0	0	0
281	282	-1	0	0	0
282	283	-1	0	0	0
283	284	-1	0	0	0
284	285	-1	0	0	0
285	286	-1	0	0	0
286	287	-1	0	0	0
287	288	-1	0	0	0
289	290	-1	0	0	0
290	291	-1	0	0	0
291	292	-1	0	0	0
292	293	-1	0	0	0
293	294	-1	0	0	0
294	295	-1	0	0	0
295	296	-1	0	0	0
296	297	-1	0	0	0
297	298	-1	0	0	0
299	300	-1	0	0	0
300	301	-1	0	0	0
301	302	-1	0	0	0
302	303	-1	0	0	0
303	304	-1	0	0	0
304	305	-1	0	0	0
305	306	-1	0	0	0
306	307	-1	0	0	0
307	308	-1	0	0	0
309	310	-1	0	0	0
310	311	-1	0	0	0
311	312	-1	0	0	0
312	313	-1	0	0	0
313	314	-1	0	0	0
314	315	-1	0	0	0
315	316	-1	0	0	0
316	317	-1	0	0	0
317	318	-1	0	0	0