[Format]      =  4.0
[Frequency]   =  0
[Precision]   =  1e-008
[MinAngle]    =  25
[DoSmartMesh] =  1
[Depth]       =  36
[LengthUnits] =  millimeters
[ProblemType] =  planar
[Coordinates] =  cartesian
[ACSolver]    =  0
[PrevType]    =  0
[PrevSoln]    =  ""
[Comment]     =  "Add comments here."
[PointProps]   = 0
[BdryProps]   = 17
  <BeginBdry>
    <BdryName> = "Air gap"
    <BdryType> = 6
    <A_0> = 0
    <A_1> = 0
    <A_2> = 0
    <Phi> = 0
    <c0> = 0
    <c0i> = 0
    <c1> = 0
    <c1i> = 0
    <Mu_ssd> = 0
    <Sigma_ssd> = 0
    <innerangle> = 15
    <outerangle> = 0
  <EndBdry>
  <BeginBdry>
    <BdryName> = "apbc1"
    <BdryType> = 4
    <A_0> = 0
    <A_1> = 0
    <A_2> = 0
    <Phi> = 0
    <c0> = 0
    <c0i> = 0
    <c1> = 0
    <c1i> = 0
    <Mu_ssd> = 0
    <Sigma_ssd> = 0
    <innerangle> = 0
    <outerangle> = 0
  <EndBdry>
  <BeginBdry>
    <BdryName> = "apbc2"
    <BdryType> = 4
    <A_0> = 0
    <A_1> = 0
    <A_2> = 0
    <Phi> = 0
    <c0> = 0
    <c0i> = 0
    <c1> = 0
    <c1i> = 0
    <Mu_ssd> = 0
    <Sigma_ssd> = 0
    <innerangle> = 0
    <outerangle> = 0
  <EndBdry>
  <BeginBdry>
    <BdryName> = "apbc3"
    <BdryType> = 4
    <A_0> = 0
    <A_1> = 0
    <A_2> = 0
    <Phi> = 0
    <c0> = 0
    <c0i> = 0
    <c1> = 0
    <c1i> = 0
    <Mu_ssd> = 0
    <Sigma_ssd> = 0
    <innerangle> = 0
    <outerangle> = 0
  <EndBdry>
  <BeginBdry>
    <BdryName> = "apbc4"
    <BdryType> = 4
    <A_0> = 0
    <A_1> = 0
    <A_2> = 0
    <Phi> = 0
    <c0> = 0
    <c0i> = 0
    <c1> = 0
    <c1i> = 0
    <Mu_ssd> = 0
    <Sigma_ssd> = 0
    <innerangle> = 0
    <outerangle> = 0
  <EndBdry>
  <BeginBdry>
    <BdryName> = "apbc6"
    <BdryType> = 4
    <A_0> = 0
    <A_1> = 0
    <A_2> = 0
    <Phi> = 0
    <c0> = 0
    <c0i> = 0
    <c1> = 0
    <c1i> = 0
    <Mu_ssd> = 0
    <Sigma_ssd> = 0
    <innerangle> = 0
    <outerangle> = 0
  <EndBdry>
  <BeginBdry>
    <BdryName> = "apbc7"
    <BdryType> = 4
    <A_0> = 0
    <A_1> = 0
    <A_2> = 0
    <Phi> = 0
    <c0> = 0
    <c0i> = 0
    <c1> = 0
    <c1i> = 0
    <Mu_ssd> = 0
    <Sigma_ssd> = 0
    <innerangle> = 0
    <outerangle> = 0
  <EndBdry>
  <BeginBdry>
    <BdryName> = "apbc8"
    <BdryType> = 4
    <A_0> = 0
    <A_1> = 0
    <A_2> = 0
    <Phi> = 0
    <c0> = 0
    <c0i> = 0
    <c1> = 0
    <c1i> = 0
    <Mu_ssd> = 0
    <Sigma_ssd> = 0
    <innerangle> = 0
    <outerangle> = 0
  <EndBdry>
  <BeginBdry>
    <BdryName> = "apbc3_01"
    <BdryType> = 4
    <A_0> = 0
    <A_1> = 0
    <A_2> = 0
    <Phi> = 0
    <c0> = 0
    <c0i> = 0
    <c1> = 0
    <c1i> = 0
    <Mu_ssd> = 0
    <Sigma_ssd> = 0
    <innerangle> = 0
    <outerangle> = 0
  <EndBdry>
  <BeginBdry>
    <BdryName> = "apbc3_02"
    <BdryType> = 4
    <A_0> = 0
    <A_1> = 0
    <A_2> = 0
    <Phi> = 0
    <c0> = 0
    <c0i> = 0
    <c1> = 0
    <c1i> = 0
    <Mu_ssd> = 0
    <Sigma_ssd> = 0
    <innerangle> = 0
    <outerangle> = 0
  <EndBdry>
  <BeginBdry>
    <BdryName> = "apbc3_03"
    <BdryType> = 4
    <A_0> = 0
    <A_1> = 0
    <A_2> = 0
    <Phi> = 0
    <c0> = 0
    <c0i> = 0
    <c1> = 0
    <c1i> = 0
    <Mu_ssd> = 0
    <Sigma_ssd> = 0
    <innerangle> = 0
    <outerangle> = 0
  <EndBdry>
  <BeginBdry>
    <BdryName> = "apbc3_04"
    <BdryType> = 4
    <A_0> = 0
    <A_1> = 0
    <A_2> = 0
    <Phi> = 0
    <c0> = 0
    <c0i> = 0
    <c1> = 0
    <c1i> = 0
    <Mu_ssd> = 0
    <Sigma_ssd> = 0
    <innerangle> = 0
    <outerangle> = 0
  <EndBdry>
  <BeginBdry>
    <BdryName> = "apbc3_05"
    <BdryType> = 4
    <A_0> = 0
    <A_1> = 0
    <A_2> = 0
    <Phi> = 0
    <c0> = 0
    <c0i> = 0
    <c1> = 0
    <c1i> = 0
    <Mu_ssd> = 0
    <Sigma_ssd> = 0
    <innerangle> = 0
    <outerangle> = 0
  <EndBdry>
  <BeginBdry>
    <BdryName> = "apbc3_06"
    <BdryType> = 4
    <A_0> = 0
    <A_1> = 0
    <A_2> = 0
    <Phi> = 0
    <c0> = 0
    <c0i> = 0
    <c1> = 0
    <c1i> = 0
    <Mu_ssd> = 0
    <Sigma_ssd> = 0
    <innerangle> = 0
    <outerangle> = 0
  <EndBdry>
  <BeginBdry>
    <BdryName> = "apbc3_07"
    <BdryType> = 4
    <A_0> = 0
    <A_1> = 0
    <A_2> = 0
    <Phi> = 0
    <c0> = 0
    <c0i> = 0
    <c1> = 0
    <c1i> = 0
    <Mu_ssd> = 0
    <Sigma_ssd> = 0
    <innerangle> = 0
    <outerangle> = 0
  <EndBdry>
  <BeginBdry>
    <BdryName> = "apbc3_08"
    <BdryType> = 4
    <A_0> = 0
    <A_1> = 0
    <A_2> = 0
    <Phi> = 0
    <c0> = 0
    <c0i> = 0
    <c1> = 0
    <c1i> = 0
    <Mu_ssd> = 0
    <Sigma_ssd> = 0
    <innerangle> = 0
    <outerangle> = 0
  <EndBdry>
  <BeginBdry>
    <BdryName> = "apbc3_09"
    <BdryType> = 4
    <A_0> = 0
    <A_1> = 0
    <A_2> = 0
    <Phi> = 0
    <c0> = 0
    <c0i> = 0
    <c1> = 0
    <c1i> = 0
    <Mu_ssd> = 0
    <Sigma_ssd> = 0
    <innerangle> = 0
    <outerangle> = 0
  <EndBdry>
[BlockProps]  = 7
  <BeginBlock>
    <BlockName> = "Air"
    <Mu_x> = 1
    <Mu_y> = 1
    <H_c> = 0
    <H_cAngle> = 0
    <J_re> = 0
    <J_im> = 0
    <Sigma> = 0
    <d_lam> = 0
    <Phi_h> = 0
    <Phi_hx> = 0
    <Phi_hy> = 0
    <LamType> = 0
    <LamFill> = 1
    <NStrands> = 0
    <WireD> = 0
    <BHPoints> = 0
  <EndBlock>
  <BeginBlock>
    <BlockName> = "Pure Iron"
    <Mu_x> = 14872
    <Mu_y> = 14872
    <H_c> = 0
    <H_cAngle> = 0
    <J_re> = 0
    <J_im> = 0
    <Sigma> = 10.44
    <d_lam> = 0
    <Phi_h> = 0
    <Phi_hx> = 0
    <Phi_hy> = 0
    <LamType> = 0
    <LamFill> = 1
    <NStrands> = 0
    <WireD> = 0
    <BHPoints> = 21
      0	0
      0.22706499999999999	13.898400000000001
      0.45412999999999998	27.796700000000001
      0.68119499999999999	42.397399999999998
      0.90825999999999996	61.415700000000001
      1.13533	82.382400000000004
      1.36239	144.66900000000001
      1.58935	897.75999999999999
      1.81236	4581.7399999999998
      2.01004	17736.200000000001
      2.1331600000000002	41339.300000000003
      2.1999900000000001	68321.800000000003
      2.2547899999999998	95685.5
      2.2999299999999998	123355
      2.3425099999999999	151083
      2.3787600000000002	178954
      2.4150100000000001	206825
      2.45126	234696
      2.4874999999999998	262568
      2.5237500000000002	290439
      2.5600000000000001	318310
  <EndBlock>
  <BeginBlock>
    <BlockName> = "Copper"
    <Mu_x> = 1
    <Mu_y> = 1
    <H_c> = 0
    <H_cAngle> = 0
    <J_re> = 0
    <J_im> = 0
    <Sigma> = 58
    <d_lam> = 0
    <Phi_h> = 0
    <Phi_hx> = 0
    <Phi_hy> = 0
    <LamType> = 0
    <LamFill> = 1
    <NStrands> = 0
    <WireD> = 0
    <BHPoints> = 0
  <EndBlock>
  <BeginBlock>
    <BlockName> = "N40"
    <Mu_x> = 1.05
    <Mu_y> = 1.05
    <H_c> = 969969
    <H_cAngle> = 0
    <J_re> = 0
    <J_im> = 0
    <Sigma> = 0.66700000000000004
    <d_lam> = 0
    <Phi_h> = 0
    <Phi_hx> = 0
    <Phi_hy> = 0
    <LamType> = 0
    <LamFill> = 1
    <NStrands> = 0
    <WireD> = 0
    <BHPoints> = 0
  <EndBlock>
  <BeginBlock>
    <BlockName> = "Air"
    <Mu_x> = 1
    <Mu_y> = 1
    <H_c> = 0
    <H_cAngle> = 0
    <J_re> = 0
    <J_im> = 0
    <Sigma> = 0
    <d_lam> = 0
    <Phi_h> = 0
    <Phi_hx> = 0
    <Phi_hy> = 0
    <LamType> = 0
    <LamFill> = 1
    <NStrands> = 0
    <WireD> = 0
    <BHPoints> = 0
  <EndBlock>
  <BeginBlock>
    <BlockName> = "N40"
    <Mu_x> = 1.05
    <Mu_y> = 1.05
    <H_c> = 969969
    <H_cAngle> = 0
    <J_re> = 0
    <J_im> = 0
    <Sigma> = 0.66700000000000004
    <d_lam> = 0
    <Phi_h> = 0
    <Phi_hx> = 0
    <Phi_hy> = 0
    <LamType> = 0
    <LamFill> = 1
    <NStrands> = 0
    <WireD> = 0
    <BHPoints> = 0
  <EndBlock>
  <BeginBlock>
    <BlockName> = "Air"
    <Mu_x> = 1
    <Mu_y> = 1
    <H_c> = 0
    <H_cAngle> = 0
    <J_re> = 0
    <J_im> = 0
    <Sigma> = 0
    <d_lam> = 0
    <Phi_h> = 0
    <Phi_hx> = 0
    <Phi_hy> = 0
    <LamType> = 0
    <LamFill> = 1
    <NStrands> = 0
    <WireD> = 0
    <BHPoints> = 0
  <EndBlock>
[CircuitProps]  = 6
  <BeginCircuit>
    <CircuitName> = "A+"
    <TotalAmps_re> = -3.0310889132455348
    <TotalAmps_im> = -0
    <CircuitType> = 1
  <EndCircuit>
  <BeginCircuit>
    <CircuitName> = "B+"
    <TotalAmps_re> = 3.0310889132455356
    <TotalAmps_im> = 0
    <CircuitType> = 1
  <EndCircuit>
  <BeginCircuit>
    <CircuitName> = "C+"
    <TotalAmps_re> = 2.1431318985078681e-016
    <TotalAmps_im> = 0
    <CircuitType> = 1
  <EndCircuit>
  <BeginCircuit>
    <CircuitName> = "A-"
    <TotalAmps_re> = 3.0310889132455348
    <TotalAmps_im> = 0
    <CircuitType> = 1
  <EndCircuit>
  <BeginCircuit>
    <CircuitName> = "B-"
    <TotalAmps_re> = -3.0310889132455356
    <TotalAmps_im> = -0
    <CircuitType> = 1
  <EndCircuit>
  <BeginCircuit>
    <CircuitName> = "C-"
    <TotalAmps_re> = -2.1431318985078681e-016
    <TotalAmps_im> = -0
    <CircuitType> = 1
  <EndCircuit>
[NumPoints] = 443
74	0	0	0
0	74	0	0
54	0	0	0
0	54	0	0
31.5	0	0	0
0	31.5	0	0
30.800000000000001	0	0	0
0	30.800000000000001	0	0
31.266666666666666	0	0	0
0	31.266666666666666	0	0
31.033333333333335	0	0	0
0	31.033333333333335	0	0
15.800000000000001	0	0	0
0	15.800000000000001	0	0
0	0	0	0
27.944812599678542	1.2604663763789199	0	0
28.005526384150087	1.1382291304083016	0	0
28.082319313335297	1.0253976013284665	0	0
28.173760880261256	0.92407362704071883	0	0
28.278147701550218	0.83614468147371901	0	0
28.393535248229025	0.76324871451542586	0	0
28.517774068624671	0.70674364010580559	0	0
28.648549828582063	0.66768204086940375	0	0
28.783426423130432	0.64679156049260977	0	0
28.919891356509662	0.64446134909853681	0	0
29.055402545212466	0.66073481411652712	0	0
29.187435672190325	0.69530881168387404	0	0
29.31353121010391	0.74753929364241312	0	0
29.431340237663818	0.81645330493712398	0	0
29.538668195589846	0.90076710792790304	0	0
29.633515767098121	0.99891009599287339	0	0
29.714116121389949	1.1090540509580495	0	0
29.778967826366593	1.2291471993427963	0	0
29.826862817468477	1.3569524330176685	0	0
29.856908901632181	1.4900889822960919	0	0
29.868546377159106	1.6260767651690351	0	0
29.861558459899136	1.7623825865403409	0	0
29.836075321529179	1.8964673268583798	0	0
29.792571664701114	2.0258332411090993	0	0
22.499009875437714	19.634049030754984	0	0
22.438296090966169	19.7562862767256	0	0
22.361503161780959	19.869117805805438	0	0
22.270061594855001	19.970441780093186	0	0
22.165674773566039	20.058370725660183	0	0
22.050287226887232	20.131266692618475	0	0
21.926048406491585	20.187771767028096	0	0
21.795272646534194	20.226833366264501	0	0
21.660396051985824	20.247723846641293	0	0
21.523931118606594	20.250054058035364	0	0
21.38841992990379	20.233780593017375	0	0
21.256386802925931	20.199206595450029	0	0
21.130291265012346	20.14697611349149	0	0
21.012482237452438	20.078062102196778	0	0
20.90515427952641	19.993748299206	0	0
20.810306708018135	19.895605311141026	0	0
20.729706353726307	19.785461356175851	0	0
20.664854648749664	19.665368207791104	0	0
20.616959657647779	19.537562974116234	0	0
20.586913573484075	19.404426424837808	0	0
20.575276097957151	19.268438641964867	0	0
20.58226401521712	19.132132820593561	0	0
20.607747153587077	18.99804808027552	0	0
20.651250810415142	18.868682166024801	0	0
18.868682166024801	20.651250810415142	0	0
18.99804808027552	20.607747153587077	0	0
19.132132820593561	20.58226401521712	0	0
19.268438641964867	20.575276097957151	0	0
19.404426424837808	20.586913573484075	0	0
19.537562974116234	20.616959657647779	0	0
19.665368207791104	20.664854648749664	0	0
19.785461356175851	20.729706353726307	0	0
19.895605311141026	20.810306708018135	0	0
19.993748299206	20.90515427952641	0	0
20.078062102196778	21.012482237452438	0	0
20.14697611349149	21.130291265012346	0	0
20.199206595450029	21.256386802925931	0	0
20.233780593017375	21.38841992990379	0	0
20.250054058035364	21.523931118606594	0	0
20.247723846641293	21.660396051985824	0	0
20.226833366264501	21.795272646534194	0	0
20.187771767028096	21.926048406491585	0	0
20.131266692618475	22.050287226887232	0	0
20.058370725660183	22.165674773566039	0	0
19.970441780093186	22.270061594855001	0	0
19.869117805805438	22.361503161780959	0	0
19.7562862767256	22.438296090966169	0	0
19.634049030754984	22.499009875437714	0	0
2.0258332411090993	29.792571664701114	0	0
1.89646732685838	29.836075321529179	0	0
1.7623825865403406	29.861558459899136	0	0
1.6260767651690351	29.868546377159106	0	0
1.4900889822960921	29.856908901632181	0	0
1.3569524330176685	29.826862817468477	0	0
1.2291471993427963	29.778967826366593	0	0
1.1090540509580495	29.714116121389949	0	0
0.99891009599287339	29.633515767098121	0	0
0.90076710792790304	29.538668195589846	0	0
0.81645330493712398	29.431340237663818	0	0
0.74753929364241312	29.31353121010391	0	0
0.69530881168387404	29.187435672190325	0	0
0.66073481411652712	29.055402545212466	0	0
0.64446134909853681	28.919891356509662	0	0
0.64679156049260977	28.783426423130432	0	0
0.66768204086940375	28.648549828582063	0	0
0.70674364010580559	28.517774068624671	0	0
0.76324871451542586	28.393535248229025	0	0
0.83614468147371901	28.278147701550218	0	0
0.92407362704071883	28.173760880261256	0	0
1.0253976013284665	28.082319313335297	0	0
1.1382291304083016	28.005526384150087	0	0
1.2604663763789199	27.944812599678542	0	0
33.777777777777779	0	0	0
36.055555555555557	0	0	0
38.333333333333336	0	0	0
40.611111111111114	0	0	0
42.888888888888886	0	0	0
45.166666666666664	0	0	0
47.444444444444443	0	0	0
49.722222222222221	0	0	0
52	0	0	0
31.456830344769077	1.6485826216527308	0	0
33.731486507265608	1.7677922997616584	0	0
36.006142669762134	1.8870019778705862	0	0
38.280798832258668	2.0062116559795138	0	0
40.555454994755195	2.1254213340884416	0	0
42.830111157251721	2.2446310121973689	0	0
45.104767319748248	2.3638406903062963	0	0
47.379423482244782	2.4830503684152241	0	0
49.654079644741309	2.6022600465241519	0	0
51.928735807237842	2.7214697246330792	0	0
31.327439704100609	3.2926465929310846	0	0
33.592739576883901	3.5307392037074066	0	0
35.858039449667189	3.7688318144837285	0	0
38.123339322450477	4.0069244252600509	0	0
40.388639195233772	4.2450170360363728	0	0
42.653939068017053	4.4831096468126939	0	0
44.919238940800341	4.7212022575890158	0	0
47.184538813583629	4.9592948683653377	0	0
49.449838686366924	5.1973874791416597	0	0
51.715138559150212	5.4354800899179816	0	0
31.112182728746841	4.9276856487672722	0	0
33.361917282324654	5.2840085969144654	0	0
35.611651835902471	5.6403315450616578	0	0
37.86138638948028	5.9966544932088501	0	0
40.111120943058097	6.3529774413560434	0	0
42.360855496635907	6.7093003895032348	0	0
44.610590050213723	7.0656233376504272	0	0
46.860324603791533	7.4219462857976195	0	0
49.110059157369349	7.7782692339448127	0	0
51.359793710947166	8.1345921820920051	0	0
30.811649423114879	6.5492182607594192	0	0
33.039652291452995	7.0227948898443158	0	0
35.267655159791104	7.4963715189292124	0	0
37.49565802812922	7.969948148014109	0	0
39.723660896467337	8.4435247770990056	0	0
41.951663764805438	8.9171014061838996	0	0
44.179666633143555	9.3906780352687971	0	0
46.407669501481671	9.8642546643536928	0	0
48.63567236981978	10.337831293438589	0	0
50.863675238157896	10.811407922523486	0	0
30.426663528105653	8.1527999207294037	0	0
32.626827910208533	8.7423321901295896	0	0
34.826992292311409	9.3318644595297755	0	0
37.027156674414286	9.9213967289299632	0	0
39.227321056517169	10.510928998330149	0	0
41.427485438620039	11.100461267730333	0	0
43.627649820722915	11.689993537130519	0	0
45.827814202825792	12.279525806530705	0	0
48.027978584928675	12.869058075930893	0	0
50.228142967031552	13.458590345331078	0	0
29.958280263297336	9.7340353228108434	0	0
32.124575661525185	10.437907365553778	0	0
34.290871059753037	11.141779408296715	0	0
36.45716645798089	11.84565145103965	0	0
38.623461856208735	12.549523493782587	0	0
40.78975725443658	13.25339553652552	0	0
42.956052652664432	13.957267579268457	0	0
45.122348050892285	14.661139622011392	0	0
47.28864344912013	15.365011664754329	0	0
49.454938847347982	16.068883707497264	0	0
29.407783434661855	11.288590410676958	0	0
31.534272183905482	12.104872962419032	0	0
33.660760933149106	12.921155514161105	0	0
35.787249682392734	13.737438065903177	0	0
37.913738431636361	14.553720617645251	0	0
40.040227180879981	15.370003169387321	0	0
42.166715930123608	16.186285721129394	0	0
44.293204679367236	17.002568272871468	0	0
46.419693428610863	17.818850824613541	0	0
48.54618217785449	18.635133376355615	0	0
28.776681915741928	12.812204256887707	0	0
30.857535458150075	13.738659943893696	0	0
32.938389000558224	14.665115630899686	0	0
35.019242542966367	15.591571317905675	0	0
37.100096085374517	16.518027004911666	0	0
39.18094962778266	17.444482691917653	0	0
41.261803170190802	18.370938378923643	0	0
43.342656712598952	19.29739406592963	0	0
45.423510255007095	20.223849752935621	0	0
47.504363797415245	21.150305439941611	0	0
28.066705511933588	14.300700741795724	0	0
30.09622037258487	15.334790213424693	0	0
32.125735233236156	16.36887968505366	0	0
34.155250093887439	17.40296915668263	0	0
36.184764954538721	18.437058628311597	0	0
38.214279815189997	19.47114809994056	0	0
40.243794675841279	20.505237571569531	0	0
42.273309536492562	21.539327043198497	0	0
44.302824397143844	22.573416514827464	0	0
46.332339257795134	23.607505986456434	0	0
27.279800219209815	15.75	0	0
29.252413638941039	16.888888888888889	0	0
31.225027058672261	18.027777777777779	0	0
33.197640478403478	19.166666666666668	0	0
35.170253898134703	20.305555555555557	0	0
37.142867317865921	21.444444444444443	0	0
39.115480737597139	22.583333333333332	0	0
41.088094157328364	23.722222222222221	0	0
43.060707577059588	24.861111111111111	0	0
45.033320996790806	26	0	0
26.418122890280859	17.156129602973355	0	0
28.328428072823215	18.396696293840915	0	0
30.238733255365567	19.637262984708478	0	0
32.149038437907926	20.877829675576038	0	0
34.059343620450278	22.118396366443601	0	0
35.96964880299263	23.358963057311161	0	0
37.879953985534982	24.599529748178721	0	0
39.790259168077341	25.840096439046285	0	0
41.700564350619693	27.080663129913845	0	0
43.610869533162052	28.321229820781408	0	0
25.484035322810843	18.515235447212905	0	0
27.326796254442669	19.854079632990203	0	0
29.169557186074496	21.192923818767504	0	0
31.012318117706322	22.531768004544805	0	0
32.855079049338144	23.870612190322106	0	0
34.697839980969967	25.2094563760994	0	0
36.540600912601789	26.548300561876701	0	0
38.383361844233619	27.887144747654002	0	0
40.226122775865441	29.225988933431303	0	0
42.068883707497264	30.564833119208604	0	0
24.480097785894582	19.823592318069878	0	0
26.250263586991018	21.257044319905621	0	0
28.020429388087454	22.69049632174136	0	0
29.790595189183886	24.1239483235771	0	0
31.560760990280322	25.557400325412843	0	0
33.330926791376747	26.990852327248579	0	0
35.101092592473186	28.424304329084322	0	0
36.871258393569619	29.857756330920061	0	0
38.641424194666051	31.291208332755804	0	0
40.411589995762483	32.724660334591547	0	0
23.409062002537919	21.077614100304036	0	0
25.101780771680872	22.601744925899212	0	0
26.794499540823828	24.125875751494391	0	0
28.487218309966782	25.650006577089567	0	0
30.179937079109735	27.174137402684746	0	0
31.872655848252684	28.698268228279918	0	0
33.565374617395641	30.222399053875094	0	0
35.25809338653859	31.746529879470273	0	0
36.950812155681547	33.270660705065453	0	0
38.643530924824503	34.794791530660632	0	0
22.273863607376249	22.273863607376249	0	0
23.884495720078942	23.884495720078942	0	0
25.495127832781634	25.495127832781634	0	0
27.105759945484326	27.105759945484326	0	0
28.716392058187019	28.716392058187019	0	0
30.327024170889704	30.327024170889704	0	0
31.937656283592396	31.937656283592396	0	0
33.548288396295092	33.548288396295092	0	0
35.158920508997781	35.158920508997781	0	0
36.769552621700477	36.769552621700477	0	0
21.077614100304036	23.409062002537919	0	0
22.601744925899212	25.101780771680872	0	0
24.125875751494391	26.794499540823828	0	0
25.650006577089567	28.487218309966782	0	0
27.174137402684746	30.179937079109735	0	0
28.698268228279918	31.872655848252684	0	0
30.222399053875094	33.565374617395641	0	0
31.746529879470273	35.25809338653859	0	0
33.270660705065453	36.950812155681547	0	0
34.794791530660632	38.643530924824503	0	0
19.823592318069878	24.480097785894582	0	0
21.257044319905621	26.250263586991018	0	0
22.69049632174136	28.020429388087454	0	0
24.1239483235771	29.790595189183886	0	0
25.557400325412843	31.560760990280322	0	0
26.990852327248579	33.330926791376747	0	0
28.424304329084322	35.101092592473186	0	0
29.857756330920061	36.871258393569619	0	0
31.291208332755804	38.641424194666051	0	0
32.724660334591547	40.411589995762483	0	0
18.515235447212905	25.484035322810843	0	0
19.854079632990203	27.326796254442669	0	0
21.192923818767504	29.169557186074496	0	0
22.531768004544805	31.012318117706322	0	0
23.870612190322106	32.855079049338144	0	0
25.2094563760994	34.697839980969967	0	0
26.548300561876701	36.540600912601789	0	0
27.887144747654002	38.383361844233619	0	0
29.225988933431303	40.226122775865441	0	0
30.564833119208604	42.068883707497264	0	0
17.156129602973355	26.418122890280859	0	0
18.396696293840915	28.328428072823215	0	0
19.637262984708478	30.238733255365567	0	0
20.877829675576038	32.149038437907926	0	0
22.118396366443601	34.059343620450278	0	0
23.358963057311161	35.96964880299263	0	0
24.599529748178721	37.879953985534982	0	0
25.840096439046285	39.790259168077341	0	0
27.080663129913845	41.700564350619693	0	0
28.321229820781408	43.610869533162052	0	0
15.75	27.279800219209815	0	0
16.888888888888889	29.252413638941039	0	0
18.027777777777779	31.225027058672261	0	0
19.166666666666668	33.197640478403478	0	0
20.305555555555557	35.170253898134703	0	0
21.444444444444443	37.142867317865921	0	0
22.583333333333332	39.115480737597139	0	0
23.722222222222221	41.088094157328364	0	0
24.861111111111111	43.060707577059588	0	0
26	45.033320996790806	0	0
14.300700741795724	28.066705511933588	0	0
15.334790213424693	30.09622037258487	0	0
16.36887968505366	32.125735233236156	0	0
17.40296915668263	34.155250093887439	0	0
18.437058628311597	36.184764954538721	0	0
19.47114809994056	38.214279815189997	0	0
20.505237571569531	40.243794675841279	0	0
21.539327043198497	42.273309536492562	0	0
22.573416514827464	44.302824397143844	0	0
23.607505986456434	46.332339257795134	0	0
12.812204256887707	28.776681915741928	0	0
13.738659943893696	30.857535458150075	0	0
14.665115630899686	32.938389000558224	0	0
15.591571317905675	35.019242542966367	0	0
16.518027004911666	37.100096085374517	0	0
17.444482691917653	39.18094962778266	0	0
18.370938378923643	41.261803170190802	0	0
19.29739406592963	43.342656712598952	0	0
20.223849752935621	45.423510255007095	0	0
21.150305439941611	47.504363797415245	0	0
11.288590410676958	29.407783434661855	0	0
12.104872962419032	31.534272183905482	0	0
12.921155514161105	33.660760933149106	0	0
13.737438065903177	35.787249682392734	0	0
14.553720617645251	37.913738431636361	0	0
15.370003169387321	40.040227180879981	0	0
16.186285721129394	42.166715930123608	0	0
17.002568272871468	44.293204679367236	0	0
17.818850824613541	46.419693428610863	0	0
18.635133376355615	48.54618217785449	0	0
9.7340353228108434	29.958280263297336	0	0
10.437907365553778	32.124575661525185	0	0
11.141779408296715	34.290871059753037	0	0
11.84565145103965	36.45716645798089	0	0
12.549523493782587	38.623461856208735	0	0
13.25339553652552	40.78975725443658	0	0
13.957267579268457	42.956052652664432	0	0
14.661139622011392	45.122348050892285	0	0
15.365011664754329	47.28864344912013	0	0
16.068883707497264	49.454938847347982	0	0
8.1527999207294037	30.426663528105653	0	0
8.7423321901295896	32.626827910208533	0	0
9.3318644595297755	34.826992292311409	0	0
9.9213967289299632	37.027156674414286	0	0
10.510928998330149	39.227321056517169	0	0
11.100461267730333	41.427485438620039	0	0
11.689993537130519	43.627649820722915	0	0
12.279525806530705	45.827814202825792	0	0
12.869058075930893	48.027978584928675	0	0
13.458590345331078	50.228142967031552	0	0
6.5492182607594192	30.811649423114879	0	0
7.0227948898443158	33.039652291452995	0	0
7.4963715189292124	35.267655159791104	0	0
7.969948148014109	37.49565802812922	0	0
8.4435247770990056	39.723660896467337	0	0
8.9171014061838996	41.951663764805438	0	0
9.3906780352687971	44.179666633143555	0	0
9.8642546643536928	46.407669501481671	0	0
10.337831293438589	48.63567236981978	0	0
10.811407922523486	50.863675238157896	0	0
4.9276856487672722	31.112182728746841	0	0
5.2840085969144654	33.361917282324654	0	0
5.6403315450616578	35.611651835902471	0	0
5.9966544932088501	37.86138638948028	0	0
6.3529774413560434	40.111120943058097	0	0
6.7093003895032348	42.360855496635907	0	0
7.0656233376504272	44.610590050213723	0	0
7.4219462857976195	46.860324603791533	0	0
7.7782692339448127	49.110059157369349	0	0
8.1345921820920051	51.359793710947166	0	0
3.2926465929310846	31.327439704100609	0	0
3.5307392037074066	33.592739576883901	0	0
3.7688318144837285	35.858039449667189	0	0
4.0069244252600509	38.123339322450477	0	0
4.2450170360363728	40.388639195233772	0	0
4.4831096468126939	42.653939068017053	0	0
4.7212022575890158	44.919238940800341	0	0
4.9592948683653377	47.184538813583629	0	0
5.1973874791416597	49.449838686366924	0	0
5.4354800899179816	51.715138559150212	0	0
1.6485826216527308	31.456830344769077	0	0
1.7677922997616584	33.731486507265608	0	0
1.8870019778705862	36.006142669762134	0	0
2.0062116559795138	38.280798832258668	0	0
2.1254213340884416	40.555454994755195	0	0
2.2446310121973689	42.830111157251721	0	0
2.3638406903062963	45.104767319748248	0	0
2.4830503684152241	47.379423482244782	0	0
2.6022600465241519	49.654079644741309	0	0
2.7214697246330792	51.928735807237842	0	0
0	33.777777777777779	0	0
0	36.055555555555557	0	0
0	38.333333333333336	0	0
0	40.611111111111114	0	0
0	42.888888888888886	0	0
0	45.166666666666664	0	0
0	47.444444444444443	0	0
0	49.722222222222221	0	0
0	52	0	0
36.269143419587813	4.1964830724395519	0	31
37.626752865908351	4.3535638447798037	0	31
37.471437589675858	5.5333004929917919	0	31
36.119432067959778	5.3336536872898286	0	31
33.508241111084025	14.500310762509878	0	31
34.762505766185463	15.043079546377411	0	31
35.21786711547832	13.943740001134081	0	31
33.947172584764381	13.440636445798354	0	31
29.311758038644474	21.76883265707793	0	31
30.408941921405663	22.583673319530938	0	31
29.684566622486535	23.527697588541777	0	31
28.613518897474552	22.67879562216142	0	31
21.76883265707793	29.311758038644474	0	31
22.583673319530938	30.408941921405663	0	31
23.527697588541777	29.684566622486535	0	31
22.67879562216142	28.613518897474552	0	31
14.500310762509883	33.508241111084025	0	31
15.043079546377419	34.762505766185463	0	31
13.943740001134076	35.217867115478327	0	31
13.440636445798351	33.947172584764381	0	31
4.1964830724395483	36.269143419587813	0	31
4.3535638447797993	37.626752865908351	0	31
5.5333004929917946	37.471437589675858	0	31
5.3336536872898321	36.119432067959778	0	31
[NumSegments] = 417
0	2	-1	2	0	0
1	3	-1	2	0	0
2	119	-1	4	0	0
4	8	-1	5	0	0
3	418	-1	4	0	0
5	9	-1	5	0	0
8	10	-1	0	0	0
9	11	-1	0	0	0
10	6	-1	6	0	0
11	7	-1	6	0	0
12	14	-1	8	0	1
13	14	-1	8	0	1
6	12	-1	7	0	1
7	13	-1	7	0	1
15	16	-1	0	48	1
16	17	-1	0	48	1
17	18	-1	0	48	1
18	19	-1	0	48	1
19	20	-1	0	48	1
20	21	-1	0	48	1
21	22	-1	0	48	1
22	23	-1	0	48	1
23	24	-1	0	48	1
24	25	-1	0	48	1
25	26	-1	0	48	1
26	27	-1	0	48	1
27	28	-1	0	48	1
28	29	-1	0	48	1
29	30	-1	0	48	1
30	31	-1	0	48	1
31	32	-1	0	48	1
32	33	-1	0	48	1
33	34	-1	0	48	1
34	35	-1	0	48	1
35	36	-1	0	48	1
36	37	-1	0	48	1
37	38	-1	0	48	1
38	39	-1	0	48	1
39	40	-1	0	48	1
40	41	-1	0	48	1
41	42	-1	0	48	1
42	43	-1	0	48	1
43	44	-1	0	48	1
44	45	-1	0	48	1
45	46	-1	0	48	1
46	47	-1	0	48	1
47	48	-1	0	48	1
48	49	-1	0	48	1
49	50	-1	0	48	1
50	51	-1	0	48	1
51	52	-1	0	48	1
52	53	-1	0	48	1
53	54	-1	0	48	1
54	55	-1	0	48	1
55	56	-1	0	48	1
56	57	-1	0	48	1
57	58	-1	0	48	1
58	59	-1	0	48	1
59	60	-1	0	48	1
60	61	-1	0	48	1
61	62	-1	0	48	1
62	15	-1	0	48	1
38	15	-1	0	48	1
62	39	-1	0	48	1
63	64	-1	0	48	1
64	65	-1	0	48	1
65	66	-1	0	48	1
66	67	-1	0	48	1
67	68	-1	0	48	1
68	69	-1	0	48	1
69	70	-1	0	48	1
70	71	-1	0	48	1
71	72	-1	0	48	1
72	73	-1	0	48	1
73	74	-1	0	48	1
74	75	-1	0	48	1
75	76	-1	0	48	1
76	77	-1	0	48	1
77	78	-1	0	48	1
78	79	-1	0	48	1
79	80	-1	0	48	1
80	81	-1	0	48	1
81	82	-1	0	48	1
82	83	-1	0	48	1
83	84	-1	0	48	1
84	85	-1	0	48	1
85	86	-1	0	48	1
86	87	-1	0	48	1
87	88	-1	0	48	1
88	89	-1	0	48	1
89	90	-1	0	48	1
90	91	-1	0	48	1
91	92	-1	0	48	1
92	93	-1	0	48	1
93	94	-1	0	48	1
94	95	-1	0	48	1
95	96	-1	0	48	1
96	97	-1	0	48	1
97	98	-1	0	48	1
98	99	-1	0	48	1
99	100	-1	0	48	1
100	101	-1	0	48	1
101	102	-1	0	48	1
102	103	-1	0	48	1
103	104	-1	0	48	1
104	105	-1	0	48	1
105	106	-1	0	48	1
106	107	-1	0	48	1
107	108	-1	0	48	1
108	109	-1	0	48	1
109	110	-1	0	48	1
110	63	-1	0	48	1
86	63	-1	0	48	1
110	87	-1	0	48	1
111	4	-1	9	0	0
112	111	-1	10	0	0
113	112	-1	11	0	0
114	113	-1	12	0	0
115	114	-1	13	0	0
116	115	-1	14	0	0
117	116	-1	15	0	0
118	117	-1	16	0	0
119	118	-1	17	0	0
120	121	-1	0	0	3
121	122	-1	0	0	3
122	123	-1	0	0	3
123	124	-1	0	0	3
124	125	-1	0	0	3
125	126	-1	0	0	3
126	127	-1	0	0	3
127	128	-1	0	0	3
128	129	-1	0	0	3
130	131	-1	0	0	3
131	132	-1	0	0	3
132	133	-1	0	0	3
133	134	-1	0	0	3
134	135	-1	0	0	3
135	136	-1	0	0	3
136	137	-1	0	0	3
137	138	-1	0	0	3
138	139	-1	0	0	3
140	141	-1	0	0	3
141	142	-1	0	0	3
142	143	-1	0	0	3
143	144	-1	0	0	3
144	145	-1	0	0	3
145	146	-1	0	0	3
146	147	-1	0	0	3
147	148	-1	0	0	3
148	149	-1	0	0	3
150	151	-1	0	0	3
151	152	-1	0	0	3
152	153	-1	0	0	3
153	154	-1	0	0	3
154	155	-1	0	0	3
155	156	-1	0	0	3
156	157	-1	0	0	3
157	158	-1	0	0	3
158	159	-1	0	0	3
160	161	-1	0	0	3
161	162	-1	0	0	3
162	163	-1	0	0	3
163	164	-1	0	0	3
164	165	-1	0	0	3
165	166	-1	0	0	3
166	167	-1	0	0	3
167	168	-1	0	0	3
168	169	-1	0	0	3
170	171	-1	0	0	3
171	172	-1	0	0	3
172	173	-1	0	0	3
173	174	-1	0	0	3
174	175	-1	0	0	3
175	176	-1	0	0	3
176	177	-1	0	0	3
177	178	-1	0	0	3
178	179	-1	0	0	3
180	181	-1	0	0	3
181	182	-1	0	0	3
182	183	-1	0	0	3
183	184	-1	0	0	3
184	185	-1	0	0	3
185	186	-1	0	0	3
186	187	-1	0	0	3
187	188	-1	0	0	3
188	189	-1	0	0	3
190	191	-1	0	0	3
191	192	-1	0	0	3
192	193	-1	0	0	3
193	194	-1	0	0	3
194	195	-1	0	0	3
195	196	-1	0	0	3
196	197	-1	0	0	3
197	198	-1	0	0	3
198	199	-1	0	0	3
200	201	-1	0	0	3
201	202	-1	0	0	3
202	203	-1	0	0	3
203	204	-1	0	0	3
204	205	-1	0	0	3
205	206	-1	0	0	3
206	207	-1	0	0	3
207	208	-1	0	0	3
208	209	-1	0	0	3
210	211	-1	0	0	3
211	212	-1	0	0	3
212	213	-1	0	0	3
213	214	-1	0	0	3
214	215	-1	0	0	3