[Format]      =  4.0
[Frequency]   =  0
[Precision]   =  1e-008
[MinAngle]    =  25
[DoSmartMesh] =  1
[Depth]       =  36
[LengthUnits] =  millimeters
[ProblemType] =  planar
[Coordinates] =  cartesian
[ACSolver]    =  0
[PrevType]    =  0
[PrevSoln]    =  ""
[Comment]     =  "Add comments here."
[PointProps]   = 0
[BdryProps]   = 26
  <BeginBdry>
    <BdryName> = "Air gap"
    <BdryType> = 6
    <A_0> = 0
    <A_1> = 0
    <A_2> = 0
    <Phi> = 0
    <c0> = 0
    <c0i> = 0
    <c1> = 0
    <c1i> = 0
    <Mu_ssd> = 0
    <Sigma_ssd> = 0
    <innerangle> = 0
    <outerangle> = 0
  <EndBdry>
  <BeginBdry>
    <BdryName> = "apbc1"
    <BdryType> = 4
    <A_0> = 0
    <A_1> = 0
    <A_2> = 0
    <Phi> = 0
    <c0> = 0
    <c0i> = 0
    <c1> = 0
    <c1i> = 0
    <Mu_ssd> = 0
    <Sigma_ssd> = 0
    <innerangle> = 0
    <outerangle> = 0
  <EndBdry>
  <BeginBdry>
    <BdryName> = "apbc2"
    <BdryType> = 4
    <A_0> = 0
    <A_1> = 0
    <A_2> = 0
    <Phi> = 0
    <c0> = 0
    <c0i> = 0
    <c1> = 0
    <c1i> = 0
    <Mu_ssd> = 0
    <Sigma_ssd> = 0
    <innerangle> = 0
    <outerangle> = 0
  <EndBdry>
  <BeginBdry>
    <BdryName> = "apbc3"
    <BdryType> = 4
    <A_0> = 0
    <A_1> = 0
    <A_2> = 0
    <Phi> = 0
    <c0> = 0
    <c0i> = 0
    <c1> = 0
    <c1i> = 0
    <Mu_ssd> = 0
    <Sigma_ssd> = 0
    <innerangle> = 0
    <outerangle> = 0
  <EndBdry>
  <BeginBdry>
    <BdryName> = "apbc4"
    <BdryType> = 4
    <A_0> = 0
    <A_1> = 0
    <A_2> = 0
    <Phi> = 0
    <c0> = 0
    <c0i> = 0
    <c1> = 0
    <c1i> = 0
    <Mu_ssd> = 0
    <Sigma_ssd> = 0
    <innerangle> = 0
    <outerangle> = 0
  <EndBdry>
  <BeginBdry>
    <BdryName> = "apbc6"
    <BdryType> = 4
    <A_0> = 0
    <A_1> = 0
    <A_2> = 0
    <Phi> = 0
    <c0> = 0
    <c0i> = 0
    <c1> = 0
    <c1i> = 0
    <Mu_ssd> = 0
    <Sigma_ssd> = 0
    <innerangle> = 0
    <outerangle> = 0
  <EndBdry>
  <BeginBdry>
    <BdryName> = "apbc7"
    <BdryType> = 4
    <A_0> = 0
    <A_1> = 0
    <A_2> = 0
    <Phi> = 0
    <c0> = 0
    <c0i> = 0
    <c1> = 0
    <c1i> = 0
    <Mu_ssd> = 0
    <Sigma_ssd> = 0
    <innerangle> = 0
    <outerangle> = 0
  <EndBdry>
  <BeginBdry>
    <BdryName> = "apbc8"
    <BdryType> = 4
    <A_0> = 0
    <A_1> = 0
    <A_2> = 0
    <Phi> = 0
    <c0> = 0
    <c0i> = 0
    <c1> = 0
    <c1i> = 0
    <Mu_ssd> = 0
    <Sigma_ssd> = 0
    <innerangle> = 0
    <outerangle> = 0
  <EndBdry>
  <BeginBdry>
    <BdryName> = "apbc3_01"
    <BdryType> = 4
    <A_0> = 0
    <A_1> = 0
    <A_2> = 0
    <Phi> = 0
    <c0> = 0
    <c0i> = 0
    <c1> = 0
    <c1i> = 0
    <Mu_ssd> = 0
    <Sigma_ssd> = 0
    <innerangle> = 0
    <outerangle> = 0
  <EndBdry>
  <BeginBdry>
    <BdryName> = "apbc3_02"
    <BdryType> = 4
    <A_0> = 0
    <A_1> = 0
    <A_2> = 0
    <Phi> = 0
    <c0> = 0
    <c0i> = 0
    <c1> = 0
    <c1i> = 0
    <Mu_ssd> = 0
    <Sigma_ssd> = 0
    <innerangle> = 0
    <outerangle> = 0
  <EndBdry>
  <BeginBdry>
    <BdryName> = "apbc3_03"
    <BdryType> = 4
    <A_0> = 0
    <A_1> = 0
    <A_2> = 0
    <Phi> = 0
    <c0> = 0
    <c0i> = 0
    <c1> = 0
    <c1i> = 0
    <Mu_ssd> = 0
    <Sigma_ssd> = 0
    <innerangle> = 0
    <outerangle> = 0
  <EndBdry>
  <BeginBdry>
    <BdryName> = "apbc3_04"
    <BdryType> = 4
    <A_0> = 0
    <A_1> = 0
    <A_2> = 0
    <Phi> = 0
    <c0> = 0
    <c0i> = 0
    <c1> = 0
    <c1i> = 0
    <Mu_ssd> = 0
    <Sigma_ssd> = 0
    <innerangle> = 0
    <outerangle> = 0
  <EndBdry>
  <BeginBdry>
    <BdryName> = "apbc3_05"
    <BdryType> = 4
    <A_0> = 0
    <A_1> = 0
    <A_2> = 0
    <Phi> = 0
    <c0> = 0
    <c0i> = 0
    <c1> = 0
    <c1i> = 0
    <Mu_ssd> = 0
    <Sigma_ssd> = 0
    <innerangle> = 0
    <outerangle> = 0
  <EndBdry>
  <BeginBdry>
    <BdryName> = "apbc3_06"
    <BdryType> = 4
    <A_0> = 0
    <A_1> = 0
    <A_2> = 0
    <Phi> = 0
    <c0> = 0
    <c0i> = 0
    <c1> = 0
    <c1i> = 0
    <Mu_ssd> = 0
    <Sigma_ssd> = 0
    <innerangle> = 0
    <outerangle> = 0
  <EndBdry>
  <BeginBdry>
    <BdryName> = "apbc3_07"
    <BdryType> = 4
    <A_0> = 0
    <A_1> = 0
    <A_2> = 0
    <Phi> = 0
    <c0> = 0
    <c0i> = 0
    <c1> = 0
    <c1i> = 0
    <Mu_ssd> = 0
    <Sigma_ssd> = 0
    <innerangle> = 0
    <outerangle> = 0
  <EndBdry>
  <BeginBdry>
    <BdryName> = "apbc3_08"
    <BdryType> = 4
    <A_0> = 0
    <A_1> = 0
    <A_2> = 0
    <Phi> = 0
    <c0> = 0
    <c0i> = 0
    <c1> = 0
    <c1i> = 0
    <Mu_ssd> = 0
    <Sigma_ssd> = 0
    <innerangle> = 0
    <outerangle> = 0
  <EndBdry>
  <BeginBdry>
    <BdryName> = "apbc3_09"
    <BdryType> = 4
    <A_0> = 0
    <A_1> = 0
    <A_2> = 0
    <Phi> = 0
    <c0> = 0
    <c0i> = 0
    <c1> = 0
    <c1i> = 0
    <Mu_ssd> = 0
    <Sigma_ssd> = 0
    <innerangle> = 0
    <outerangle> = 0
  <EndBdry>
  <BeginBdry>
    <BdryName> = "apbc3_10"
    <BdryType> = 4
    <A_0> = 0
    <A_1> = 0
    <A_2> = 0
    <Phi> = 0
    <c0> = 0
    <c0i> = 0
    <c1> = 0
    <c1i> = 0
    <Mu_ssd> = 0
    <Sigma_ssd> = 0
    <innerangle> = 0
    <outerangle> = 0
  <EndBdry>
  <BeginBdry>
    <BdryName> = "apbc3_11"
    <BdryType> = 4
    <A_0> = 0
    <A_1> = 0
    <A_2> = 0
    <Phi> = 0
    <c0> = 0
    <c0i> = 0
    <c1> = 0
    <c1i> = 0
    <Mu_ssd> = 0
    <Sigma_ssd> = 0
    <innerangle> = 0
    <outerangle> = 0
  <EndBdry>
  <BeginBdry>
    <BdryName> = "apbc3_12"
    <BdryType> = 4
    <A_0> = 0
    <A_1> = 0
    <A_2> = 0
    <Phi> = 0
    <c0> = 0
    <c0i> = 0
    <c1> = 0
    <c1i> = 0
    <Mu_ssd> = 0
    <Sigma_ssd> = 0
    <innerangle> = 0
    <outerangle> = 0
  <EndBdry>
  <BeginBdry>
    <BdryName> = "apbc3_13"
    <BdryType> = 4
    <A_0> = 0
    <A_1> = 0
    <A_2> = 0
    <Phi> = 0
    <c0> = 0
    <c0i> = 0
    <c1> = 0
    <c1i> = 0
    <Mu_ssd> = 0
    <Sigma_ssd> = 0
    <innerangle> = 0
    <outerangle> = 0
  <EndBdry>
  <BeginBdry>
    <BdryName> = "apbc3_14"
    <BdryType> = 4
    <A_0> = 0
    <A_1> = 0
    <A_2> = 0
    <Phi> = 0
    <c0> = 0
    <c0i> = 0
    <c1> = 0
    <c1i> = 0
    <Mu_ssd> = 0
    <Sigma_ssd> = 0
    <innerangle> = 0
    <outerangle> = 0
  <EndBdry>
  <BeginBdry>
    <BdryName> = "apbc3_15"
    <BdryType> = 4
    <A_0> = 0
    <A_1> = 0
    <A_2> = 0
    <Phi> = 0
    <c0> = 0
    <c0i> = 0
    <c1> = 0
    <c1i> = 0
    <Mu_ssd> = 0
    <Sigma_ssd> = 0
    <innerangle> = 0
    <outerangle> = 0
  <EndBdry>
  <BeginBdry>
    <BdryName> = "apbc3_16"
    <BdryType> = 4
    <A_0> = 0
    <A_1> = 0
    <A_2> = 0
    <Phi> = 0
    <c0> = 0
    <c0i> = 0
    <c1> = 0
    <c1i> = 0
    <Mu_ssd> = 0
    <Sigma_ssd> = 0
    <innerangle> = 0
    <outerangle> = 0
  <EndBdry>
  <BeginBdry>
    <BdryName> = "apbc3_17"
    <BdryType> = 4
    <A_0> = 0
    <A_1> = 0
    <A_2> = 0
    <Phi> = 0
    <c0> = 0
    <c0i> = 0
    <c1> = 0
    <c1i> = 0
    <Mu_ssd> = 0
    <Sigma_ssd> = 0
    <innerangle> = 0
    <outerangle> = 0
  <EndBdry>
  <BeginBdry>
    <BdryName> = "apbc3_18"
    <BdryType> = 4
    <A_0> = 0
    <A_1> = 0
    <A_2> = 0
    <Phi> = 0
    <c0> = 0
    <c0i> = 0
    <c1> = 0
    <c1i> = 0
    <Mu_ssd> = 0
    <Sigma_ssd> = 0
    <innerangle> = 0
    <outerangle> = 0
  <EndBdry>
[BlockProps]  = 7
  <BeginBlock>
    <BlockName> = "Air"
    <Mu_x> = 1
    <Mu_y> = 1
    <H_c> = 0
    <H_cAngle> = 0
    <J_re> = 0
    <J_im> = 0
    <Sigma> = 0
    <d_lam> = 0
    <Phi_h> = 0
    <Phi_hx> = 0
    <Phi_hy> = 0
    <LamType> = 0
    <LamFill> = 1
    <NStrands> = 0
    <WireD> = 0
    <BHPoints> = 0
  <EndBlock>
  <BeginBlock>
    <BlockName> = "Pure Iron"
    <Mu_x> = 14872
    <Mu_y> = 14872
    <H_c> = 0
    <H_cAngle> = 0
    <J_re> = 0
    <J_im> = 0
    <Sigma> = 10.44
    <d_lam> = 0
    <Phi_h> = 0
    <Phi_hx> = 0
    <Phi_hy> = 0
    <LamType> = 0
    <LamFill> = 1
    <NStrands> = 0
    <WireD> = 0
    <BHPoints> = 21
      0	0
      0.22706499999999999	13.898400000000001
      0.45412999999999998	27.796700000000001
      0.68119499999999999	42.397399999999998
      0.90825999999999996	61.415700000000001
      1.13533	82.382400000000004
      1.36239	144.66900000000001
      1.58935	897.75999999999999
      1.81236	4581.7399999999998
      2.01004	17736.200000000001
      2.1331600000000002	41339.300000000003
      2.1999900000000001	68321.800000000003
      2.2547899999999998	95685.5
      2.2999299999999998	123355
      2.3425099999999999	151083
      2.3787600000000002	178954
      2.4150100000000001	206825
      2.45126	234696
      2.4874999999999998	262568
      2.5237500000000002	290439
      2.5600000000000001	318310
  <EndBlock>
  <BeginBlock>
    <BlockName> = "Copper"
    <Mu_x> = 1
    <Mu_y> = 1
    <H_c> = 0
    <H_cAngle> = 0
    <J_re> = 0
    <J_im> = 0
    <Sigma> = 58
    <d_lam> = 0
    <Phi_h> = 0
    <Phi_hx> = 0
    <Phi_hy> = 0
    <LamType> = 0
    <LamFill> = 1
    <NStrands> = 0
    <WireD> = 0
    <BHPoints> = 0
  <EndBlock>
  <BeginBlock>
    <BlockName> = "N40"
    <Mu_x> = 1.05
    <Mu_y> = 1.05
    <H_c> = 969969
    <H_cAngle> = 0
    <J_re> = 0
    <J_im> = 0
    <Sigma> = 0.66700000000000004
    <d_lam> = 0
    <Phi_h> = 0
    <Phi_hx> = 0
    <Phi_hy> = 0
    <LamType> = 0
    <LamFill> = 1
    <NStrands> = 0
    <WireD> = 0
    <BHPoints> = 0
  <EndBlock>
  <BeginBlock>
    <BlockName> = "Air"
    <Mu_x> = 1
    <Mu_y> = 1
    <H_c> = 0
    <H_cAngle> = 0
    <J_re> = 0
    <J_im> = 0
    <Sigma> = 0
    <d_lam> = 0
    <Phi_h> = 0
    <Phi_hx> = 0
    <Phi_hy> = 0
    <LamType> = 0
    <LamFill> = 1
    <NStrands> = 0
    <WireD> = 0
    <BHPoints> = 0
  <EndBlock>
  <BeginBlock>
    <BlockName> = "N40"
    <Mu_x> = 1.05
    <Mu_y> = 1.05
    <H_c> = 969969
    <H_cAngle> = 0
    <J_re> = 0
    <J_im> = 0
    <Sigma> = 0.66700000000000004
    <d_lam> = 0
    <Phi_h> = 0
    <Phi_hx> = 0
    <Phi_hy> = 0
    <LamType> = 0
    <LamFill> = 1
    <NStrands> = 0
    <WireD> = 0
    <BHPoints> = 0
  <EndBlock>
  <BeginBlock>
    <BlockName> = "Air"
    <Mu_x> = 1
    <Mu_y> = 1
    <H_c> = 0
    <H_cAngle> = 0
    <J_re> = 0
    <J_im> = 0
    <Sigma> = 0
    <d_lam> = 0
    <Phi_h> = 0
    <Phi_hx> = 0
    <Phi_hy> = 0
    <LamType> = 0
    <LamFill> = 1
    <NStrands> = 0
    <WireD> = 0
    <BHPoints> = 0
  <EndBlock>
[CircuitProps]  = 6
  <BeginCircuit>
    <CircuitName> = "A+"
    <TotalAmps_re> = 0
    <TotalAmps_im> = 0
    <CircuitType> = 1
  <EndCircuit>
  <BeginCircuit>
    <CircuitName> = "B+"
    <TotalAmps_re> = 0
    <TotalAmps_im> = 0
    <CircuitType> = 1
  <EndCircuit>
  <BeginCircuit>
    <CircuitName> = "C+"
    <TotalAmps_re> = 0
    <TotalAmps_im> = 0
    <CircuitType> = 1
  <EndCircuit>
  <BeginCircuit>
    <CircuitName> = "A-"
    <TotalAmps_re> = 0
    <TotalAmps_im> = 0
    <CircuitType> = 1
  <EndCircuit>
  <BeginCircuit>
    <CircuitName> = "B-"
    <TotalAmps_re> = 0
    <TotalAmps_im> = 0
    <CircuitType> = 1
  <EndCircuit>
  <BeginCircuit>
    <CircuitName> = "C-"
    <TotalAmps_re> = 0
    <TotalAmps_im> = 0
    <CircuitType> = 1
  <EndCircuit>
[NumPoints] = 1268
74	0	0	0
0	74	0	0
54	0	0	0
0	54	0	0
31.5	0	0	0
0	31.5	0	0
30.800000000000001	0	0	0
0	30.800000000000001	0	0
31.266666666666666	0	0	0
0	31.266666666666666	0	0
31.033333333333335	0	0	0
0	31.033333333333335	0	0
15.800000000000001	0	0	0
0	15.800000000000001	0	0
0	0	0	0
27.944812599678542	1.2604663763789199	0	0
28.005526384150087	1.1382291304083016	0	0
28.082319313335297	1.0253976013284665	0	0
28.173760880261256	0.92407362704071883	0	0
28.278147701550218	0.83614468147371901	0	0
28.393535248229025	0.76324871451542586	0	0
28.517774068624671	0.70674364010580559	0	0
28.648549828582063	0.66768204086940375	0	0
28.783426423130432	0.64679156049260977	0	0
28.919891356509662	0.64446134909853681	0	0
29.055402545212466	0.66073481411652712	0	0
29.187435672190325	0.69530881168387404	0	0
29.31353121010391	0.74753929364241312	0	0
29.431340237663818	0.81645330493712398	0	0
29.538668195589846	0.90076710792790304	0	0
29.633515767098121	0.99891009599287339	0	0
29.714116121389949	1.1090540509580495	0	0
29.778967826366593	1.2291471993427963	0	0
29.826862817468477	1.3569524330176685	0	0
29.856908901632181	1.4900889822960919	0	0
29.868546377159106	1.6260767651690351	0	0
29.861558459899136	1.7623825865403409	0	0
29.836075321529179	1.8964673268583798	0	0
29.792571664701114	2.0258332411090993	0	0
22.499009875437714	19.634049030754984	0	0
22.438296090966169	19.7562862767256	0	0
22.361503161780959	19.869117805805438	0	0
22.270061594855001	19.970441780093186	0	0
22.165674773566039	20.058370725660183	0	0
22.050287226887232	20.131266692618475	0	0
21.926048406491585	20.187771767028096	0	0
21.795272646534194	20.226833366264501	0	0
21.660396051985824	20.247723846641293	0	0
21.523931118606594	20.250054058035364	0	0
21.38841992990379	20.233780593017375	0	0
21.256386802925931	20.199206595450029	0	0
21.130291265012346	20.14697611349149	0	0
21.012482237452438	20.078062102196778	0	0
20.90515427952641	19.993748299206	0	0
20.810306708018135	19.895605311141026	0	0
20.729706353726307	19.785461356175851	0	0
20.664854648749664	19.665368207791104	0	0
20.616959657647779	19.537562974116234	0	0
20.586913573484075	19.404426424837808	0	0
20.575276097957151	19.268438641964867	0	0
20.58226401521712	19.132132820593561	0	0
20.607747153587077	18.99804808027552	0	0
20.651250810415142	18.868682166024801	0	0
18.868682166024801	20.651250810415142	0	0
18.99804808027552	20.607747153587077	0	0
19.132132820593561	20.58226401521712	0	0
19.268438641964867	20.575276097957151	0	0
19.404426424837808	20.586913573484075	0	0
19.537562974116234	20.616959657647779	0	0
19.665368207791104	20.664854648749664	0	0
19.785461356175851	20.729706353726307	0	0
19.895605311141026	20.810306708018135	0	0
19.993748299206	20.90515427952641	0	0
20.078062102196778	21.012482237452438	0	0
20.14697611349149	21.130291265012346	0	0
20.199206595450029	21.256386802925931	0	0
20.233780593017375	21.38841992990379	0	0
20.250054058035364	21.523931118606594	0	0
20.247723846641293	21.660396051985824	0	0
20.226833366264501	21.795272646534194	0	0
20.187771767028096	21.926048406491585	0	0
20.131266692618475	22.050287226887232	0	0
20.058370725660183	22.165674773566039	0	0
19.970441780093186	22.270061594855001	0	0
19.869117805805438	22.361503161780959	0	0
19.7562862767256	22.438296090966169	0	0
19.634049030754984	22.499009875437714	0	0
2.0258332411090993	29.792571664701114	0	0
1.89646732685838	29.836075321529179	0	0
1.7623825865403406	29.861558459899136	0	0
1.6260767651690351	29.868546377159106	0	0
1.4900889822960921	29.856908901632181	0	0
1.3569524330176685	29.826862817468477	0	0
1.2291471993427963	29.778967826366593	0	0
1.1090540509580495	29.714116121389949	0	0
0.99891009599287339	29.633515767098121	0	0
0.90076710792790304	29.538668195589846	0	0
0.81645330493712398	29.431340237663818	0	0
0.74753929364241312	29.31353121010391	0	0
0.69530881168387404	29.187435672190325	0	0
0.66073481411652712	29.055402545212466	0	0
0.64446134909853681	28.919891356509662	0	0
0.64679156049260977	28.783426423130432	0	0
0.66768204086940375	28.648549828582063	0	0
0.70674364010580559	28.517774068624671	0	0
0.76324871451542586	28.393535248229025	0	0
0.83614468147371901	28.278147701550218	0	0
0.92407362704071883	28.173760880261256	0	0
1.0253976013284665	28.082319313335297	0	0
1.1382291304083016	28.005526384150087	0	0
1.2604663763789199	27.944812599678542	0	0
32.638888888888886	0	0	0
33.777777777777779	0	0	0
34.916666666666664	0	0	0
36.055555555555557	0	0	0
37.194444444444443	0	0	0
38.333333333333336	0	0	0
39.472222222222221	0	0	0
40.611111111111114	0	0	0
41.75	0	0	0
42.888888888888886	0	0	0
44.027777777777779	0	0	0
45.166666666666664	0	0	0
46.305555555555557	0	0	0
47.444444444444443	0	0	0
48.583333333333329	0	0	0
49.722222222222221	0	0	0
50.861111111111114	0	0	0
52	0	0	0
31.489205736730053	0.82457387169800445	0	0
32.6277043568411	0.85438650727085985	0	0
33.766202976952158	0.88419914284371548	0	0
34.904701597063202	0.914011778416571	0	0
36.04320021717426	0.94382441398942662	0	0
37.18169883728531	0.97363704956228203	0	0
38.320197457396361	1.0034496851351378	0	0
39.458696077507412	1.0332623207079932	0	0
40.59719469761847	1.0630749562808488	0	0
41.735693317729513	1.0928875918537042	0	0
42.874191937840564	1.1227002274265596	0	0
44.012690557951622	1.1525128629994155	0	0
45.151189178062666	1.1823254985722709	0	0
46.289687798173723	1.2121381341451265	0	0
47.428186418284774	1.2419507697179819	0	0
48.566685038395818	1.2717634052908373	0	0
49.705183658506876	1.3015760408636929	0	0
50.843682278617926	1.3313886764365486	0	0
51.982180898728977	1.3612013120094042	0	0
31.456830344769077	1.6485826216527308	0	0
32.594158426017337	1.7081874607071945	0	0
33.731486507265608	1.7677922997616584	0	0
34.868814588513864	1.8273971388161221	0	0
36.006142669762134	1.8870019778705862	0	0
37.143470751010398	1.9466068169250497	0	0
38.280798832258668	2.0062116559795138	0	0
39.418126913506924	2.0658164950339772	0	0
40.555454994755195	2.1254213340884416	0	0
41.692783076003458	2.185026173142905	0	0
42.830111157251721	2.2446310121973689	0	0
43.967439238499985	2.3042358512518328	0	0
45.104767319748248	2.3638406903062963	0	0
46.242095400996519	2.4234455293607606	0	0
47.379423482244782	2.4830503684152241	0	0
48.516751563493038	2.5426552074696875	0	0
49.654079644741309	2.6022600465241519	0	0
50.791407725989579	2.6618648855786158	0	0
51.928735807237842	2.7214697246330792	0	0
31.40289601259353	2.4714615154271158	0	0
32.538274087122922	2.5608177077838277	0	0
33.673652161652321	2.6501739001405404	0	0
34.809030236181712	2.7395300924972523	0	0
35.944408310711118	2.8288862848539651	0	0
37.07978638524051	2.918242477210677	0	0
38.215164459769909	3.0075986695673897	0	0
39.350542534299301	3.0969548619241016	0	0
40.4859206088287	3.1863110542808144	0	0
41.621298683358091	3.2756672466375263	0	0
42.756676757887483	3.3650234389942386	0	0
43.892054832416882	3.4543796313509509	0	0
45.027432906946281	3.5437358237076633	0	0
46.16281098147568	3.6330920160643756	0	0
47.298189056005072	3.7224482084210879	0	0
48.433567130534463	3.8118044007777998	0	0
49.568945205063862	3.9011605931345126	0	0
50.704323279593261	3.9905167854912249	0	0
51.839701354122653	4.0798729778479368	0	0
31.327439704100609	3.2926465929310846	0	0
32.460089640492249	3.4116928983192452	0	0
33.592739576883901	3.5307392037074066	0	0
34.725389513275537	3.6497855090955671	0	0
35.858039449667189	3.7688318144837285	0	0
36.990689386058833	3.887878119871889	0	0
38.123339322450477	4.0069244252600509	0	0
39.255989258842121	4.125970730648211	0	0
40.388639195233772	4.2450170360363728	0	0
41.521289131625409	4.3640633414245329	0	0
42.653939068017053	4.4831096468126939	0	0
43.786589004408697	4.6021559522008548	0	0
44.919238940800341	4.7212022575890158	0	0
46.051888877191992	4.8402485629771768	0	0
47.184538813583629	4.9592948683653377	0	0
48.317188749975273	5.0783411737534978	0	0
49.449838686366924	5.1973874791416597	0	0
50.582488622758568	5.3164337845298206	0	0
51.715138559150212	5.4354800899179816	0	0
31.230513133275029	4.1115750549316248	0	0
32.359658669839639	4.2602298849600162	0	0
33.488804206404261	4.4088847149884085	0	0
34.617949742968875	4.5575395450168008	0	0
35.747095279533497	4.7061943750451931	0	0
36.876240816098111	4.8548492050735845	0	0
38.005386352662732	5.0035040351019777	0	0
39.134531889227347	5.1521588651303691	0	0
40.263677425791968	5.3008136951587614	0	0
41.392822962356583	5.4494685251871529	0	0
42.521968498921197	5.5981233552155452	0	0
43.651114035485818	5.7467781852439375	0	0
44.780259572050433	5.8954330152723289	0	0
45.909405108615054	6.0440878453007221	0	0
47.038550645179669	6.1927426753291135	0	0
48.167696181744283	6.3413975053575049	0	0
49.296841718308904	6.4900523353858972	0	0
50.425987254873526	6.6387071654142904	0	0
51.55513279143814	6.7873619954426818	0	0
31.112182728746841	4.9276856487672722	0	0
32.237050005535743	5.1058471228408679	0	0
33.361917282324654	5.2840085969144654	0	0
34.486784559113559	5.4621700709880612	0	0
35.611651835902471	5.6403315450616578	0	0
36.736519112691376	5.8184930191352535	0	0
37.86138638948028	5.9966544932088501	0	0
38.986253666269185	6.1748159672824459	0	0
40.111120943058097	6.3529774413560434	0	0
41.235988219847002	6.5311389154296391	0	0
42.360855496635907	6.7093003895032348	0	0
43.485722773424818	6.8874618635768314	0	0
44.610590050213723	7.0656233376504272	0	0
45.735457327002628	7.2437848117240238	0	0
46.860324603791533	7.4219462857976195	0	0
47.985191880580437	7.6001077598712152	0	0
49.110059157369349	7.7782692339448127	0	0
50.234926434158261	7.9564307080184093	0	0
51.359793710947166	8.1345921820920051	0	0
30.972529588264571	5.7404190530026451	0	0
32.092347677434624	5.9479650681464795	0	0
33.212165766604691	6.1555110832903148	0	0
34.331983855774745	6.3630570984341484	0	0
35.451801944944812	6.5706031135779845	0	0
36.571620034114865	6.7781491287218181	0	0
37.691438123284932	6.9856951438656534	0	0
38.811256212454985	7.1932411590094878	0	0
39.931074301625046	7.4007871741533231	0	0
41.050892390795106	7.6083331892971566	0	0
42.170710479965159	7.815879204440991	0	0
43.290528569135226	8.0234252195848264	0	0
44.410346658305279	8.2309712347286599	0	0
45.530164747475347	8.4385172498724952	0	0
46.6499828366454	8.6460632650163305	0	0
47.76980092581546	8.853609280160164	0	0
48.88961901498552	9.0611552953039993	0	0
50.00943710415558	9.2687013104478346	0	0
51.129255193325641	9.4762473255916682	0	0
30.811649423114879	6.5492182607594192	0	0
31.925650857283934	6.786006575301867	0	0
33.039652291452995	7.0227948898443158	0	0
34.15365372562205	7.2595832043867636	0	0
35.267655159791104	7.4963715189292124	0	0
36.381656593960159	7.7331598334716594	0	0
37.49565802812922	7.969948148014109	0	0
38.609659462298275	8.206736462556556	0	0
39.723660896467337	8.4435247770990056	0	0
40.837662330636391	8.6803130916414517	0	0
41.951663764805438	8.9171014061838996	0	0
43.0656651989745	9.1538897207263492	0	0
44.179666633143555	9.3906780352687971	0	0
45.293668067312616	9.6274663498112449	0	0
46.407669501481671	9.8642546643536928	0	0
47.521670935650725	10.101042978896141	0	0
48.63567236981978	10.337831293438589	0	0
49.749673803988841	10.574619607981038	0	0
50.863675238157896	10.811407922523486	0	0
30.629652492526812	7.3535289614610209	0	0
31.737073790757496	7.6193972925191344	0	0
32.844495088988189	7.8852656235772498	0	0
33.951916387218873	8.1511339546353643	0	0
35.059337685449563	8.4170022856934796	0	0
36.166758983680246	8.6828706167515932	0	0
37.274180281910937	8.9487389478097086	0	0
38.38160158014162	9.2146072788678222	0	0
39.48902287837231	9.4804756099259375	0	0
40.596444176602994	9.7463439409840511	0	0
41.703865474833684	10.012212272042165	0	0
42.811286773064374	10.27808060310028	0	0
43.918708071295057	10.543948934158394	0	0
45.026129369525748	10.809817265216509	0	0
46.133550667756431	11.075685596274623	0	0
47.240971965987114	11.341553927332738	0	0
48.348393264217805	11.607422258390853	0	0
49.455814562448495	11.873290589448969	0	0
50.563235860679178	12.139158920507082	0	0
30.426663528105653	8.1527999207294037	0	0
31.526745719157088	8.4475660554294958	0	0
32.626827910208533	8.7423321901295896	0	0
33.726910101259968	9.0370983248296817	0	0
34.826992292311409	9.3318644595297755	0	0
35.927074483362844	9.6266305942298676	0	0
37.027156674414286	9.9213967289299632	0	0
38.127238865465721	10.216162863630055	0	0
39.227321056517169	10.510928998330149	0	0
40.327403247568604	10.805695133030241	0	0
41.427485438620039	11.100461267730333	0	0
42.527567629671481	11.395227402430427	0	0
43.627649820722915	11.689993537130519	0	0
44.727732011774357	11.984759671830613	0	0
45.827814202825792	12.279525806530705	0	0
46.927896393877234	12.574291941230799	0	0
48.027978584928675	12.869058075930893	0	0
49.128060775980117	13.163824210630986	0	0
50.228142967031552	13.458590345331078	0	0
30.202821648348081	8.9464833581735626	0	0
31.294810790836852	9.2699452785308072	0	0
32.386799933325634	9.5934071988880536	0	0
33.478789075814404	9.9168691192452982	0	0
34.570778218303182	10.240331039602545	0	0
35.662767360791953	10.563792959959789	0	0
36.754756503280738	10.887254880317036	0	0
37.846745645769509	11.21071680067428	0	0
38.938734788258287	11.534178721031527	0	0
40.030723930747058	11.85764064138877	0	0
41.122713073235829	12.181102561746014	0	0
42.214702215724614	12.504564482103261	0	0
43.306691358213385	12.828026402460505	0	0
44.398680500702163	13.151488322817752	0	0
45.490669643190934	13.474950243174996	0	0
46.582658785679705	13.798412163532241	0	0
47.67464792816849	14.121874083889487	0	0
48.766637070657268	14.445336004246734	0	0
49.858626213146039	14.768797924603977	0	0
29.958280263297336	9.7340353228108434	0	0
31.041427962411259	10.08597134418231	0	0
32.124575661525185	10.437907365553778	0	0
33.207723360639108	10.789843386925245	0	0
34.290871059753037	11.141779408296715	0	0
35.37401875886696	11.493715429668182	0	0
36.45716645798089	11.84565145103965	0	0
37.540314157094812	12.197587472411119	0	0
38.623461856208735	12.549523493782587	0	0
39.706609555322657	12.901459515154054	0	0
40.78975725443658	13.25339553652552	0	0
41.87290495355051	13.60533155789699	0	0
42.956052652664432	13.957267579268457	0	0
44.039200351778362	14.309203600639925	0	0
45.122348050892285	14.661139622011392	0	0
46.205495750006207	15.013075643382859	0	0
47.28864344912013	15.365011664754329	0	0
48.37179114823406	15.716947686125797	0	0
49.454938847347982	16.068883707497264	0	0
29.693206969403622	10.514916065863783	0	0
30.766770889814154	10.895084988880022	0	0
31.840334810224693	11.275253911896263	0	0
32.913898730635225	11.6554228349125	0	0
33.987462651045767	12.03559175792874	0	0
35.061026571456303	12.415760680944979	0	0
36.134590491866845	12.795929603961218	0	0
37.208154412277374	13.176098526977457	0	0
38.281718332687916	13.556267449993697	0	0
39.355282253098451	13.936436373009935	0	0
40.42884617350898	14.316605296026173	0	0
41.502410093919522	14.696774219042414	0	0
42.575974014330058	15.076943142058651	0	0
43.6495379347406	15.457112065074892	0	0
44.723101855151128	15.83728098809113	0	0
45.796665775561664	16.217449911107369	0	0
46.870229695972206	16.597618834123608	0	0
47.943793616382742	16.977787757139851	0	0
49.017357536793277	17.357956680156086	0	0
29.407783434661855	11.288590410676958	0	0
30.471027809283665	11.696731686547993	0	0
31.534272183905482	12.104872962419032	0	0
32.597516558527289	12.513014238290067	0	0
33.660760933149106	12.921155514161105	0	0
34.724005307770916	13.32929679003214	0	0
35.787249682392734	13.737438065903177	0	0
36.850494057014544	14.145579341774214	0	0
37.913738431636361	14.553720617645251	0	0
38.976982806258171	14.961861893516286	0	0
40.040227180879981	15.370003169387321	0	0
41.103471555501798	15.778144445258359	0	0
42.166715930123608	16.186285721129394	0	0
43.229960304745426	16.594426997000433	0	0
44.293204679367236	17.002568272871468	0	0
45.356449053989046	17.410709548742503	0	0
46.419693428610863	17.818850824613541	0	0
47.48293780323268	18.22699210048458	0	0
48.54618217785449	18.635133376355615	0	0
29.102205274105533	12.054528119500327	0	0
30.154401408354495	12.490362028582791	0	0
31.206597542603465	12.926195937665256	0	0
32.258793676852427	13.362029846747717	0	0
33.310989811101393	13.797863755830182	0	0
34.363185945350359	14.233697664912645	0	0
35.415382079599325	14.669531573995108	0	0
36.467578213848292	15.105365483077572	0	0
37.519774348097258	15.541199392160037	0	0
38.571970482346224	15.977033301242498	0	0
39.624166616595183	16.412867210324961	0	0
40.676362750844156	16.848701119407426	0	0
41.728558885093115	17.284535028489888	0	0
42.780755019342088	17.720368937572353	0	0
43.832951153591047	18.156202846654814	0	0
44.885147287840013	18.592036755737276	0	0
45.937343422088979	19.027870664819741	0	0
46.989539556337945	19.463704573902206	0	0
48.041735690586911	19.899538482984667	0	0
28.776681915741928	12.812204256887707	0	0
29.817108686945996	13.275432100390701	0	0
30.857535458150075	13.738659943893696	0	0
31.897962229354146	14.201887787396689	0	0
32.938389000558224	14.665115630899686	0	0
33.978815771762292	15.12834347440268	0	0
35.019242542966367	15.591571317905675	0	0
36.059669314170442	16.05479916140867	0	0
37.100096085374517	16.518027004911666	0	0
38.140522856578585	16.981254848414657	0	0
39.18094962778266	17.444482691917653	0	0
40.221376398986735	17.907710535420648	0	0
41.261803170190802	18.370938378923643	0	0
42.302229941394877	18.834166222426639	0	0
43.342656712598952	19.29739406592963	0	0
44.38308348380302	19.760621909432626	0	0
45.423510255007095	20.223849752935621	0	0
46.463937026211177	20.687077596438616	0	0
47.504363797415245	21.150305439941611	0	0
28.43143645702061	13.561099549461296	0	0
29.459380808641281	14.051403854159631	0	0
30.48732516026196	14.54170815885797	0	0
31.515269511882632	15.032012463556304	0	0
32.543213863503311	15.522316768254642	0	0
33.57115821512398	16.012621072952978	0	0
34.599102566744662	16.502925377651316	0	0
35.62704691836533	16.99322968234965	0	0
36.654991269986013	17.483533987047988	0	0
37.682935621606681	17.973838291746322	0	0
38.71087997322735	18.464142596444656	0	0
39.738824324848032	18.954446901142994	0	0
40.766768676468701	19.444751205841328	0	0
41.794713028089383	19.935055510539666	0	0
42.822657379710051	20.425359815238004	0	0
43.850601731330727	20.915664119936338	0	0
44.878546082951402	21.405968424634676	0	0
45.906490434572078	21.896272729333013	0	0
46.934434786192753	22.386577034031347	0	0
28.066705511933588	14.300700741795724	0	0
29.081462942259225	14.817745477610206	0	0
30.09622037258487	15.334790213424693	0	0
31.110977802910512	15.851834949239175	0	0
32.125735233236156	16.36887968505366	0	0
33.140492663561794	16.885924420868143	0	0
34.155250093887439	17.40296915668263	0	0
35.170007524213077	17.92001389249711	0	0
36.184764954538721	18.437058628311597	0	0
37.199522384864359	18.95410336412608	0	0
38.214279815189997	19.47114809994056	0	0
39.229037245515642	19.988192835755047	0	0
40.243794675841279	20.505237571569531	0	0
41.258552106166924	21.022282307384014	0	0
42.273309536492562	21.539327043198497	0	0
43.288066966818199	22.056371779012981	0	0
44.302824397143844	22.573416514827464	0	0
45.317581827469489	23.090461250641951	0	0
46.332339257795134	23.607505986456434	0	0