[Format]      =  4.0
[Frequency]   =  0
[Precision]   =  1e-008
[MinAngle]    =  25
[DoSmartMesh] =  1
[Depth]       =  36
[LengthUnits] =  millimeters
[ProblemType] =  planar
[Coordinates] =  cartesian
[ACSolver]    =  0
[PrevType]    =  0
[PrevSoln]    =  ""
[Comment]     =  "Add comments here."
[PointProps]   = 0
[BdryProps]   = 26
  <BeginBdry>
    <BdryName> = "Air gap"
    <BdryType> = 6
    <A_0> = 0
    <A_1> = 0
    <A_2> = 0
    <Phi> = 0
    <c0> = 0
    <c0i> = 0
    <c1> = 0
    <c1i> = 0
    <Mu_ssd> = 0
    <Sigma_ssd> = 0
    <innerangle> = 0
    <outerangle> = 0
  <EndBdry>
  <BeginBdry>
    <BdryName> = "apbc1"
    <BdryType> = 4
    <A_0> = 0
    <A_1> = 0
    <A_2> = 0
    <Phi> = 0
    <c0> = 0
    <c0i> = 0
    <c1> = 0
    <c1i> = 0
    <Mu_ssd> = 0
    <Sigma_ssd> = 0
    <innerangle> = 0
    <outerangle> = 0
  <EndBdry>
  <BeginBdry>
    <BdryName> = "apbc2"
    <BdryType> = 4
    <A_0> = 0
    <A_1> = 0
    <A_2> = 0
    <Phi> = 0
    <c0> = 0
    <c0i> = 0
    <c1> = 0
    <c1i> = 0
    <Mu_ssd> = 0
    <Sigma_ssd> = 0
    <innerangle> = 0
    <outerangle> = 0
  <EndBdry>
  <BeginBdry>
    <BdryName> = "apbc3"
    <BdryType> = 4
    <A_0> = 0
    <A_1> = 0
    <A_2> = 0
    <Phi> = 0
    <c0> = 0
    <c0i> = 0
    <c1> = 0
    <c1i> = 0
    <Mu_ssd> = 0
    <Sigma_ssd> = 0
    <innerangle> = 0
    <outerangle> = 0
  <EndBdry>
  <BeginBdry>
    <BdryName> = "apbc4"
    <BdryType> = 4
    <A_0> = 0
    <A_1> = 0
    <A_2> = 0
    <Phi> = 0
    <c0> = 0
    <c0i> = 0
    <c1> = 0
    <c1i> = 0
    <Mu_ssd> = 0
    <Sigma_ssd> = 0
    <innerangle> = 0
    <outerangle> = 0
  <EndBdry>
  <BeginBdry>
    <BdryName> = "apbc6"
    <BdryType> = 4
    <A_0> = 0
    <A_1> = 0
    <A_2> = 0
    <Phi> = 0
    <c0> = 0
    <c0i> = 0
    <c1> = 0
    <c1i> = 0
    <Mu_ssd> = 0
    <Sigma_ssd> = 0
    <innerangle> = 0
    <outerangle> = 0
  <EndBdry>
  <BeginBdry>
    <BdryName> = "apbc7"
    <BdryType> = 4
    <A_0> = 0
    <A_1> = 0
    <A_2> = 0
    <Phi> = 0
    <c0> = 0
    <c0i> = 0
    <c1> = 0
    <c1i> = 0
    <Mu_ssd> = 0
    <Sigma_ssd> = 0
    <innerangle> = 0
    <outerangle> = 0
  <EndBdry>
  <BeginBdry>
    <BdryName> = "apbc8"
    <BdryType> = 4
    <A_0> = 0
    <A_1> = 0
    <A_2> = 0
    <Phi> = 0
    <c0> = 0
    <c0i> = 0
    <c1> = 0
    <c1i> = 0
    <Mu_ssd> = 0
    <Sigma_ssd> = 0
    <innerangle> = 0
    <outerangle> = 0
  <EndBdry>
  <BeginBdry>
    <BdryName> = "apbc3_01"
    <BdryType> = 4
    <A_0> = 0
    <A_1> = 0
    <A_2> = 0
    <Phi> = 0
    <c0> = 0
    <c0i> = 0
    <c1> = 0
    <c1i> = 0
    <Mu_ssd> = 0
    <Sigma_ssd> = 0
    <innerangle> = 0
    <outerangle> = 0
  <EndBdry>
  <BeginBdry>
    <BdryName> = "apbc3_02"
    <BdryType> = 4
    <A_0> = 0
    <A_1> = 0
    <A_2> = 0
    <Phi> = 0
    <c0> = 0
    <c0i> = 0
    <c1> = 0
    <c1i> = 0
    <Mu_ssd> = 0
    <Sigma_ssd> = 0
    <innerangle> = 0
    <outerangle> = 0
  <EndBdry>
  <BeginBdry>
    <BdryName> = "apbc3_03"
    <BdryType> = 4
    <A_0> = 0
    <A_1> = 0
    <A_2> = 0
    <Phi> = 0
    <c0> = 0
    <c0i> = 0
    <c1> = 0
    <c1i> = 0
    <Mu_ssd> = 0
    <Sigma_ssd> = 0
    <innerangle> = 0
    <outerangle> = 0
  <EndBdry>
  <BeginBdry>
    <BdryName> = "apbc3_04"
    <BdryType> = 4
    <A_0> = 0
    <A_1> = 0
    <A_2> = 0
    <Phi> = 0
    <c0> = 0
    <c0i> = 0
    <c1> = 0
    <c1i> = 0
    <Mu_ssd> = 0
    <Sigma_ssd> = 0
    <innerangle> = 0
    <outerangle> = 0
  <EndBdry>
  <BeginBdry>
    <BdryName> = "apbc3_05"
    <BdryType> = 4
    <A_0> = 0
    <A_1> = 0
    <A_2> = 0
    <Phi> = 0
    <c0> = 0
    <c0i> = 0
    <c1> = 0
    <c1i> = 0
    <Mu_ssd> = 0
    <Sigma_ssd> = 0
    <innerangle> = 0
    <outerangle> = 0
  <EndBdry>
  <BeginBdry>
    <BdryName> = "apbc3_06"
    <BdryType> = 4
    <A_0> = 0
    <A_1> = 0
    <A_2> = 0
    <Phi> = 0
    <c0> = 0
    <c0i> = 0
    <c1> = 0
    <c1i> = 0
    <Mu_ssd> = 0
    <Sigma_ssd> = 0
    <innerangle> = 0
    <outerangle> = 0
  <EndBdry>
  <BeginBdry>
    <BdryName> = "apbc3_07"
    <BdryType> = 4
    <A_0> = 0
    <A_1> = 0
    <A_2> = 0
    <Phi> = 0
    <c0> = 0
    <c0i> = 0
    <c1> = 0
    <c1i> = 0
    <Mu_ssd> = 0
    <Sigma_ssd> = 0
    <innerangle> = 0
    <outerangle> = 0
  <EndBdry>
  <BeginBdry>
    <BdryName> = "apbc3_08"
    <BdryType> = 4
    <A_0> = 0
    <A_1> = 0
    <A_2> = 0
    <Phi> = 0
    <c0> = 0
    <c0i> = 0
    <c1> = 0
    <c1i> = 0
    <Mu_ssd> = 0
    <Sigma_ssd> = 0
    <innerangle> = 0
    <outerangle> = 0
  <EndBdry>
  <BeginBdry>
    <BdryName> = "apbc3_09"
    <BdryType> = 4
    <A_0> = 0
    <A_1> = 0
    <A_2> = 0
    <Phi> = 0
    <c0> = 0
    <c0i> = 0
    <c1> = 0
    <c1i> = 0
    <Mu_ssd> = 0
    <Sigma_ssd> = 0
    <innerangle> = 0
    <outerangle> = 0
  <EndBdry>
  <BeginBdry>
    <BdryName> = "apbc3_10"
    <BdryType> = 4
    <A_0> = 0
    <A_1> = 0
    <A_2> = 0
    <Phi> = 0
    <c0> = 0
    <c0i> = 0
    <c1> = 0
    <c1i> = 0
    <Mu_ssd> = 0
    <Sigma_ssd> = 0
    <innerangle> = 0
    <outerangle> = 0
  <EndBdry>
  <BeginBdry>
    <BdryName> = "apbc3_11"
    <BdryType> = 4
    <A_0> = 0
    <A_1> = 0
    <A_2> = 0
    <Phi> = 0
    <c0> = 0
    <c0i> = 0
    <c1> = 0
    <c1i> = 0
    <Mu_ssd> = 0
    <Sigma_ssd> = 0
    <innerangle> = 0
    <outerangle> = 0
  <EndBdry>
  <BeginBdry>
    <BdryName> = "apbc3_12"
    <BdryType> = 4
    <A_0> = 0
    <A_1> = 0
    <A_2> = 0
    <Phi> = 0
    <c0> = 0
    <c0i> = 0
    <c1> = 0
    <c1i> = 0
    <Mu_ssd> = 0
    <Sigma_ssd> = 0
    <innerangle> = 0
    <outerangle> = 0
  <EndBdry>
  <BeginBdry>
    <BdryName> = "apbc3_13"
    <BdryType> = 4
    <A_0> = 0
    <A_1> = 0
    <A_2> = 0
    <Phi> = 0
    <c0> = 0
    <c0i> = 0
    <c1> = 0
    <c1i> = 0
    <Mu_ssd> = 0
    <Sigma_ssd> = 0
    <innerangle> = 0
    <outerangle> = 0
  <EndBdry>
  <BeginBdry>
    <BdryName> = "apbc3_14"
    <BdryType> = 4
    <A_0> = 0
    <A_1> = 0
    <A_2> = 0
    <Phi> = 0
    <c0> = 0
    <c0i> = 0
    <c1> = 0
    <c1i> = 0
    <Mu_ssd> = 0
    <Sigma_ssd> = 0
    <innerangle> = 0
    <outerangle> = 0
  <EndBdry>
  <BeginBdry>
    <BdryName> = "apbc3_15"
    <BdryType> = 4
    <A_0> = 0
    <A_1> = 0
    <A_2> = 0
    <Phi> = 0
    <c0> = 0
    <c0i> = 0
    <c1> = 0
    <c1i> = 0
    <Mu_ssd> = 0
    <Sigma_ssd> = 0
    <innerangle> = 0
    <outerangle> = 0
  <EndBdry>
  <BeginBdry>
    <BdryName> = "apbc3_16"
    <BdryType> = 4
    <A_0> = 0
    <A_1> = 0
    <A_2> = 0
    <Phi> = 0
    <c0> = 0
    <c0i> = 0
    <c1> = 0
    <c1i> = 0
    <Mu_ssd> = 0
    <Sigma_ssd> = 0
    <innerangle> = 0
    <outerangle> = 0
  <EndBdry>
  <BeginBdry>
    <BdryName> = "apbc3_17"
    <BdryType> = 4
    <A_0> = 0
    <A_1> = 0
    <A_2> = 0
    <Phi> = 0
    <c0> = 0
    <c0i> = 0
    <c1> = 0
    <c1i> = 0
    <Mu_ssd> = 0
    <Sigma_ssd> = 0
    <innerangle> = 0
    <outerangle> = 0
  <EndBdry>
  <BeginBdry>
    <BdryName> = "apbc3_18"
    <BdryType> = 4
    <A_0> = 0
    <A_1> = 0
    <A_2> = 0
    <Phi> = 0
    <c0> = 0
    <c0i> = 0
    <c1> = 0
    <c1i> = 0
    <Mu_ssd> = 0
    <Sigma_ssd> = 0
    <innerangle> = 0
    <outerangle> = 0
  <EndBdry>
[BlockProps]  = 7
  <BeginBlock>
    <BlockName> = "Air"
    <Mu_x> = 1
    <Mu_y> = 1
    <H_c> = 0
    <H_cAngle> = 0
    <J_re> = 0
    <J_im> = 0
    <Sigma> = 0
    <d_lam> = 0
    <Phi_h> = 0
    <Phi_hx> = 0
    <Phi_hy> = 0
    <LamType> = 0
    <LamFill> = 1
    <NStrands> = 0
    <WireD> = 0
    <BHPoints> = 0
  <EndBlock>
  <BeginBlock>
    <BlockName> = "Pure Iron"
    <Mu_x> = 14872
    <Mu_y> = 14872
    <H_c> = 0
    <H_cAngle> = 0
    <J_re> = 0
    <J_im> = 0
    <Sigma> = 10.44
    <d_lam> = 0
    <Phi_h> = 0
    <Phi_hx> = 0
    <Phi_hy> = 0
    <LamType> = 0
    <LamFill> = 1
    <NStrands> = 0
    <WireD> = 0
    <BHPoints> = 21
      0	0
      0.22706499999999999	13.898400000000001
      0.45412999999999998	27.796700000000001
      0.68119499999999999	42.397399999999998
      0.90825999999999996	61.415700000000001
      1.13533	82.382400000000004
      1.36239	144.66900000000001
      1.58935	897.75999999999999
      1.81236	4581.7399999999998
      2.01004	17736.200000000001
      2.1331600000000002	41339.300000000003
      2.1999900000000001	68321.800000000003
      2.2547899999999998	95685.5
      2.2999299999999998	123355
      2.3425099999999999	151083
      2.3787600000000002	178954
      2.4150100000000001	206825
      2.45126	234696
      2.4874999999999998	262568
      2.5237500000000002	290439
      2.5600000000000001	318310
  <EndBlock>
  <BeginBlock>
    <BlockName> = "Copper"
    <Mu_x> = 1
    <Mu_y> = 1
    <H_c> = 0
    <H_cAngle> = 0
    <J_re> = 0
    <J_im> = 0
    <Sigma> = 58
    <d_lam> = 0
    <Phi_h> = 0
    <Phi_hx> = 0
    <Phi_hy> = 0
    <LamType> = 0
    <LamFill> = 1
    <NStrands> = 0
    <WireD> = 0
    <BHPoints> = 0
  <EndBlock>
  <BeginBlock>
    <BlockName> = "N40"
    <Mu_x> = 1.05
    <Mu_y> = 1.05
    <H_c> = 969969
    <H_cAngle> = 0
    <J_re> = 0
    <J_im> = 0
    <Sigma> = 0.66700000000000004
    <d_lam> = 0
    <Phi_h> = 0
    <Phi_hx> = 0
    <Phi_hy> = 0
    <LamType> = 0
    <LamFill> = 1
    <NStrands> = 0
    <WireD> = 0
    <BHPoints> = 0
  <EndBlock>
  <BeginBlock>
    <BlockName> = "Air"
    <Mu_x> = 1
    <Mu_y> = 1
    <H_c> = 0
    <H_cAngle> = 0
    <J_re> = 0
    <J_im> = 0
    <Sigma> = 0
    <d_lam> = 0
    <Phi_h> = 0
    <Phi_hx> = 0
    <Phi_hy> = 0
    <LamType> = 0
    <LamFill> = 1
    <NStrands> = 0
    <WireD> = 0
    <BHPoints> = 0
  <EndBlock>
  <BeginBlock>
    <BlockName> = "N40"
    <Mu_x> = 1.05
    <Mu_y> = 1.05
    <H_c> = 969969
    <H_cAngle> = 0
    <J_re> = 0
    <J_im> = 0
    <Sigma> = 0.66700000000000004
    <d_lam> = 0
    <Phi_h> = 0
    <Phi_hx> = 0
    <Phi_hy> = 0
    <LamType> = 0
    <LamFill> = 1
    <NStrands> = 0
    <WireD> = 0
    <BHPoints> = 0
  <EndBlock>
  <BeginBlock>
    <BlockName> = "Air"
    <Mu_x> = 1
    <Mu_y> = 1
    <H_c> = 0
    <H_cAngle> = 0
    <J_re> = 0
    <J_im> = 0
    <Sigma> = 0
    <d_lam> = 0
    <Phi_h> = 0
    <Phi_hx> = 0
    <Phi_hy> = 0
    <LamType> = 0
    <LamFill> = 1
    <NStrands> = 0
    <WireD> = 0
    <BHPoints> = 0
  <EndBlock>
[CircuitProps]  = 6
  <BeginCircuit>
    <CircuitName> = "A+"
    <TotalAmps_re> = 0
    <TotalAmps_im> = 0
    <CircuitType> = 1
  <EndCircuit>
  <BeginCircuit>
    <CircuitName> = "B+"
    <TotalAmps_re> = 0
    <TotalAmps_im> = 0
    <CircuitType> = 1
  <EndCircuit>
  <BeginCircuit>
    <CircuitName> = "C+"
    <TotalAmps_re> = 0
    <TotalAmps_im> = 0
    <CircuitType> = 1
  <EndCircuit>
  <BeginCircuit>
    <CircuitName> = "A-"
    <TotalAmps_re> = 0
    <TotalAmps_im> = 0
    <CircuitType> = 1
  <EndCircuit>
  <BeginCircuit>
    <CircuitName> = "B-"
    <TotalAmps_re> = 0
    <TotalAmps_im> = 0
    <CircuitType> = 1
  <EndCircuit>
  <BeginCircuit>
    <CircuitName> = "C-"
    <TotalAmps_re> = 0
    <TotalAmps_im> = 0
    <CircuitType> = 1
  <EndCircuit>
[NumPoints] = 111
74	0	0	0
0	74	0	0
54	0	0	0
0	54	0	0
31.5	0	0	0
0	31.5	0	0
30.800000000000001	0	0	0
0	30.800000000000001	0	0
31.266666666666666	0	0	0
0	31.266666666666666	0	0
31.033333333333335	0	0	0
0	31.033333333333335	0	0
15.800000000000001	0	0	0
0	15.800000000000001	0	0
0	0	0	0
27.944812599678542	1.2604663763789199	0	0
28.005526384150087	1.1382291304083016	0	0
28.082319313335297	1.0253976013284665	0	0
28.173760880261256	0.92407362704071883	0	0
28.278147701550218	0.83614468147371901	0	0
28.393535248229025	0.76324871451542586	0	0
28.517774068624671	0.70674364010580559	0	0
28.648549828582063	0.66768204086940375	0	0
28.783426423130432	0.64679156049260977	0	0
28.919891356509662	0.64446134909853681	0	0
29.055402545212466	0.66073481411652712	0	0
29.187435672190325	0.69530881168387404	0	0
29.31353121010391	0.74753929364241312	0	0
29.431340237663818	0.81645330493712398	0	0
29.538668195589846	0.90076710792790304	0	0
29.633515767098121	0.99891009599287339	0	0
29.714116121389949	1.1090540509580495	0	0
29.778967826366593	1.2291471993427963	0	0
29.826862817468477	1.3569524330176685	0	0
29.856908901632181	1.4900889822960919	0	0
29.868546377159106	1.6260767651690351	0	0
29.861558459899136	1.7623825865403409	0	0
29.836075321529179	1.8964673268583798	0	0
29.792571664701114	2.0258332411090993	0	0
22.499009875437714	19.634049030754984	0	0
22.438296090966169	19.7562862767256	0	0
22.361503161780959	19.869117805805438	0	0
22.270061594855001	19.970441780093186	0	0
22.165674773566039	20.058370725660183	0	0
22.050287226887232	20.131266692618475	0	0
21.926048406491585	20.187771767028096	0	0
21.795272646534194	20.226833366264501	0	0
21.660396051985824	20.247723846641293	0	0
21.523931118606594	20.250054058035364	0	0
21.38841992990379	20.233780593017375	0	0
21.256386802925931	20.199206595450029	0	0
21.130291265012346	20.14697611349149	0	0
21.012482237452438	20.078062102196778	0	0
20.90515427952641	19.993748299206	0	0
20.810306708018135	19.895605311141026	0	0
20.729706353726307	19.785461356175851	0	0
20.664854648749664	19.665368207791104	0	0
20.616959657647779	19.537562974116234	0	0
20.586913573484075	19.404426424837808	0	0
20.575276097957151	19.268438641964867	0	0
20.58226401521712	19.132132820593561	0	0
20.607747153587077	18.99804808027552	0	0
20.651250810415142	18.868682166024801	0	0
18.868682166024801	20.651250810415142	0	0
18.99804808027552	20.607747153587077	0	0
19.132132820593561	20.58226401521712	0	0
19.268438641964867	20.575276097957151	0	0
19.404426424837808	20.586913573484075	0	0
19.537562974116234	20.616959657647779	0	0
19.665368207791104	20.664854648749664	0	0
19.785461356175851	20.729706353726307	0	0
19.895605311141026	20.810306708018135	0	0
19.993748299206	20.90515427952641	0	0
20.078062102196778	21.012482237452438	0	0
20.14697611349149	21.130291265012346	0	0
20.199206595450029	21.256386802925931	0	0
20.233780593017375	21.38841992990379	0	0
20.250054058035364	21.523931118606594	0	0
20.247723846641293	21.660396051985824	0	0
20.226833366264501	21.795272646534194	0	0
20.187771767028096	21.926048406491585	0	0
20.131266692618475	22.050287226887232	0	0
20.058370725660183	22.165674773566039	0	0
19.970441780093186	22.270061594855001	0	0
19.869117805805438	22.361503161780959	0	0
19.7562862767256	22.438296090966169	0	0
19.634049030754984	22.499009875437714	0	0
2.0258332411090993	29.792571664701114	0	0
1.89646732685838	29.836075321529179	0	0
1.7623825865403406	29.861558459899136	0	0
1.6260767651690351	29.868546377159106	0	0
1.4900889822960921	29.856908901632181	0	0
1.3569524330176685	29.826862817468477	0	0
1.2291471993427963	29.778967826366593	0	0
1.1090540509580495	29.714116121389949	0	0
0.99891009599287339	29.633515767098121	0	0
0.90076710792790304	29.538668195589846	0	0
0.81645330493712398	29.431340237663818	0	0
0.74753929364241312	29.31353121010391	0	0
0.69530881168387404	29.187435672190325	0	0
0.66073481411652712	29.055402545212466	0	0
0.64446134909853681	28.919891356509662	0	0
0.64679156049260977	28.783426423130432	0	0
0.66768204086940375	28.648549828582063	0	0
0.70674364010580559	28.517774068624671	0	0
0.76324871451542586	28.393535248229025	0	0
0.83614468147371901	28.278147701550218	0	0
0.92407362704071883	28.173760880261256	0	0
1.0253976013284665	28.082319313335297	0	0
1.1382291304083016	28.005526384150087	0	0
1.2604663763789199	27.944812599678542	0	0
[NumSegments] = 114
0	2	-1	2	0	0
1	3	-1	2	0	0
2	4	-1	26	0	0
4	8	-1	5	0	0
3	5	-1	26	0	0
5	9	-1	5	0	0
8	10	-1	0	0	0
9	11	-1	0	0	0
10	6	-1	6	0	0
11	7	-1	6	0	0
12	14	-1	8	0	1
13	14	-1	8	0	1
6	12	-1	7	0	1
7	13	-1	7	0	1
15	16	-1	0	48	1
16	17	-1	0	48	1
17	18	-1	0	48	1
18	19	-1	0	48	1
19	20	-1	0	48	1
20	21	-1	0	48	1
21	22	-1	0	48	1
22	23	-1	0	48	1
23	24	-1	0	48	1
24	25	-1	0	48	1
25	26	-1	0	48	1
26	27	-1	0	48	1
27	28	-1	0	48	1
28	29	-1	0	48	1
29	30	-1	0	48	1
30	31	-1	0	48	1
31	32	-1	0	48	1
32	33	-1	0	48	1
33	34	-1	0	48	1
34	35	-1	0	48	1
35	36	-1	0	48	1
36	37	-1	0	48	1
37	38	-1	0	48	1
38	39	-1	0	48	1
39	40	-1	0	48	1
40	41	-1	0	48	1
41	42	-1	0	48	1
42	43	-1	0	48	1
43	44	-1	0	48	1
44	45	-1	0	48	1
45	46	-1	0	48	1
46	47	-1	0	48	1
47	48	-1	0	48	1
48	49	-1	0	48	1
49	50	-1	0	48	1
50	51	-1	0	48	1
51	52	-1	0	48	1
52	53	-1	0	48	1
53	54	-1	0	48	1
54	55	-1	0	48	1
55	56	-1	0	48	1
56	57	-1	0	48	1
57	58	-1	0	48	1
58	59	-1	0	48	1
59	60	-1	0	48	1
60	61	-1	0	48	1
61	62	-1	0	48	1
62	15	-1	0	48	1
38	15	-1	0	48	1
62	39	-1	0	48	1
63	64	-1	0	48	1
64	65	-1	0	48	1
65	66	-1	0	48	1
66	67	-1	0	48	1
67	68	-1	0	48	1
68	69	-1	0	48	1
69	70	-1	0	48	1
70	71	-1	0	48	1
71	72	-1	0	48	1
72	73	-1	0	48	1
73	74	-1	0	48	1
74	75	-1	0	48	1
75	76	-1	0	48	1
76	77	-1	0	48	1
77	78	-1	0	48	1
78	79	-1	0	48	1
79	80	-1	0	48	1
80	81	-1	0	48	1
81	82	-1	0	48	1
82	83	-1	0	48	1
83	84	-1	0	48	1
84	85	-1	0	48	1
85	86	-1	0	48	1
86	87	-1	0	48	1
87	88	-1	0	48	1
88	89	-1	0	48	1
89	90	-1	0	48	1
90	91	-1	0	48	1
91	92	-1	0	48	1
92	93	-1	0	48	1
93	94	-1	0	48	1
94	95	-1	0	48	1
95	96	-1	0	48	1
96	97	-1	0	48	1
97	98	-1	0	48	1
98	99	-1	0	48	1
99	100	-1	0	48	1
100	101	-1	0	48	1
101	102	-1	0	48	1
102	103	-1	0	48	1
103	104	-1	0	48	1
104	105	-1	0	48	1
105	106	-1	0	48	1
106	107	-1	0	48	1
107	108	-1	0	48	1
108	109	-1	0	48	1
109	110	-1	0	48	1
110	63	-1	0	48	1
86	63	-1	0	48	1
110	87	-1	0	48	1
[NumArcSegments] = 7
0	1	90	5	0	0	2	1
2	3	90	5	0	0	2	1
4	5	90	5	0	0	2	1
6	7	90	1	0	0	1	1
8	9	90	1	1	0	0	1
10	11	90	1	1	0	0	1
12	13	90	5	0	0	1	1
[NumHoles] = 1
22.026376233960956	22.026376233960953	0
[NumBlockLabels] = 12
45.254833995939045	45.254833995939038	7	-1	0	1	0	1	0
37.476659402887023	37.476659402887016	2	-1	0	1	0	1	0
22.191367816237818	22.191367816237815	7	-1	0	1	0	1	0
21.861384651684098	21.861384651684094	7	-1	0	1	0	1	0
16.47558800164656	16.475588001646557	2	-1	0	0	1	1	0
5.586143571373726	5.5861435713737251	7	-1	0	0	1	1	0
25.221911237558128	10.447257703566951	6	-1	0	-157.5	1	1	0
28.273064670766576	1.2344286624390091	7	-1	0	0	1	1	0
20.864948631726513	19.119202875523186	7	-1	0	0	1	1	0
10.447257703566953	25.221911237558128	6	-1	0	67.5	1	1	0
19.11920287552319	20.864948631726509	7	-1	0	0	1	1	0
1.2344286624390091	28.273064670766576	7	-1	0	0	1	1	0
