[Format]      =  4.0
[Frequency]   =  0
[Precision]   =  1e-008
[MinAngle]    =  25
[DoSmartMesh] =  1
[Depth]       =  36
[LengthUnits] =  millimeters
[ProblemType] =  planar
[Coordinates] =  cartesian
[ACSolver]    =  0
[PrevType]    =  0
[PrevSoln]    =  ""
[Comment]     =  "Add comments here."
[PointProps]   = 0
[BdryProps]   = 17
  <BeginBdry>
    <BdryName> = "Air gap"
    <BdryType> = 6
    <A_0> = 0
    <A_1> = 0
    <A_2> = 0
    <Phi> = 0
    <c0> = 0
    <c0i> = 0
    <c1> = 0
    <c1i> = 0
    <Mu_ssd> = 0
    <Sigma_ssd> = 0
    <innerangle> = 0
    <outerangle> = 0
  <EndBdry>
  <BeginBdry>
    <BdryName> = "apbc1"
    <BdryType> = 4
    <A_0> = 0
    <A_1> = 0
    <A_2> = 0
    <Phi> = 0
    <c0> = 0
    <c0i> = 0
    <c1> = 0
    <c1i> = 0
    <Mu_ssd> = 0
    <Sigma_ssd> = 0
    <innerangle> = 0
    <outerangle> = 0
  <EndBdry>
  <BeginBdry>
    <BdryName> = "apbc2"
    <BdryType> = 4
    <A_0> = 0
    <A_1> = 0
    <A_2> = 0
    <Phi> = 0
    <c0> = 0
    <c0i> = 0
    <c1> = 0
    <c1i> = 0
    <Mu_ssd> = 0
    <Sigma_ssd> = 0
    <innerangle> = 0
    <outerangle> = 0
  <EndBdry>
  <BeginBdry>
    <BdryName> = "apbc3"
    <BdryType> = 4
    <A_0> = 0
    <A_1> = 0
    <A_2> = 0
    <Phi> = 0
    <c0> = 0
    <c0i> = 0
    <c1> = 0
    <c1i> = 0
    <Mu_ssd> = 0
    <Sigma_ssd> = 0
    <innerangle> = 0
    <outerangle> = 0
  <EndBdry>
  <BeginBdry>
    <BdryName> = "apbc4"
    <BdryType> = 4
    <A_0> = 0
    <A_1> = 0
    <A_2> = 0
    <Phi> = 0
    <c0> = 0
    <c0i> = 0
    <c1> = 0
    <c1i> = 0
    <Mu_ssd> = 0
    <Sigma_ssd> = 0
    <innerangle> = 0
    <outerangle> = 0
  <EndBdry>
  <BeginBdry>
    <BdryName> = "apbc6"
    <BdryType> = 4
    <A_0> = 0
    <A_1> = 0
    <A_2> = 0
    <Phi> = 0
    <c0> = 0
    <c0i> = 0
    <c1> = 0
    <c1i> = 0
    <Mu_ssd> = 0
    <Sigma_ssd> = 0
    <innerangle> = 0
    <outerangle> = 0
  <EndBdry>
  <BeginBdry>
    <BdryName> = "apbc7"
    <BdryType> = 4
    <A_0> = 0
    <A_1> = 0
    <A_2> = 0
    <Phi> = 0
    <c0> = 0
    <c0i> = 0
    <c1> = 0
    <c1i> = 0
    <Mu_ssd> = 0
    <Sigma_ssd> = 0
    <innerangle> = 0
    <outerangle> = 0
  <EndBdry>
  <BeginBdry>
    <BdryName> = "apbc8"
    <BdryType> = 4
    <A_0> = 0
    <A_1> = 0
    <A_2> = 0
    <Phi> = 0
    <c0> = 0
    <c0i> = 0
    <c1> = 0
    <c1i> = 0
    <Mu_ssd> = 0
    <Sigma_ssd> = 0
    <innerangle> = 0
    <outerangle> = 0
  <EndBdry>
  <BeginBdry>
    <BdryName> = "apbc3_01"
    <BdryType> = 4
    <A_0> = 0
    <A_1> = 0
    <A_2> = 0
    <Phi> = 0
    <c0> = 0
    <c0i> = 0
    <c1> = 0
    <c1i> = 0
    <Mu_ssd> = 0
    <Sigma_ssd> = 0
    <innerangle> = 0
    <outerangle> = 0
  <EndBdry>
  <BeginBdry>
    <BdryName> = "apbc3_02"
    <BdryType> = 4
    <A_0> = 0
    <A_1> = 0
    <A_2> = 0
    <Phi> = 0
    <c0> = 0
    <c0i> = 0
    <c1> = 0
    <c1i> = 0
    <Mu_ssd> = 0
    <Sigma_ssd> = 0
    <innerangle> = 0
    <outerangle> = 0
  <EndBdry>
  <BeginBdry>
    <BdryName> = "apbc3_03"
    <BdryType> = 4
    <A_0> = 0
    <A_1> = 0
    <A_2> = 0
    <Phi> = 0
    <c0> = 0
    <c0i> = 0
    <c1> = 0
    <c1i> = 0
    <Mu_ssd> = 0
    <Sigma_ssd> = 0
    <innerangle> = 0
    <outerangle> = 0
  <EndBdry>
  <BeginBdry>
    <BdryName> = "apbc3_04"
    <BdryType> = 4
    <A_0> = 0
    <A_1> = 0
    <A_2> = 0
    <Phi> = 0
    <c0> = 0
    <c0i> = 0
    <c1> = 0
    <c1i> = 0
    <Mu_ssd> = 0
    <Sigma_ssd> = 0
    <innerangle> = 0
    <outerangle> = 0
  <EndBdry>
  <BeginBdry>
    <BdryName> = "apbc3_05"
    <BdryType> = 4
    <A_0> = 0
    <A_1> = 0
    <A_2> = 0
    <Phi> = 0
    <c0> = 0
    <c0i> = 0
    <c1> = 0
    <c1i> = 0
    <Mu_ssd> = 0
    <Sigma_ssd> = 0
    <innerangle> = 0
    <outerangle> = 0
  <EndBdry>
  <BeginBdry>
    <BdryName> = "apbc3_06"
    <BdryType> = 4
    <A_0> = 0
    <A_1> = 0
    <A_2> = 0
    <Phi> = 0
    <c0> = 0
    <c0i> = 0
    <c1> = 0
    <c1i> = 0
    <Mu_ssd> = 0
    <Sigma_ssd> = 0
    <innerangle> = 0
    <outerangle> = 0
  <EndBdry>
  <BeginBdry>
    <BdryName> = "apbc3_07"
    <BdryType> = 4
    <A_0> = 0
    <A_1> = 0
    <A_2> = 0
    <Phi> = 0
    <c0> = 0
    <c0i> = 0
    <c1> = 0
    <c1i> = 0
    <Mu_ssd> = 0
    <Sigma_ssd> = 0
    <innerangle> = 0
    <outerangle> = 0
  <EndBdry>
  <BeginBdry>
    <BdryName> = "apbc3_08"
    <BdryType> = 4
    <A_0> = 0
    <A_1> = 0
    <A_2> = 0
    <Phi> = 0
    <c0> = 0
    <c0i> = 0
    <c1> = 0
    <c1i> = 0
    <Mu_ssd> = 0
    <Sigma_ssd> = 0
    <innerangle> = 0
    <outerangle> = 0
  <EndBdry>
  <BeginBdry>
    <BdryName> = "apbc3_09"
    <BdryType> = 4
    <A_0> = 0
    <A_1> = 0
    <A_2> = 0
    <Phi> = 0
    <c0> = 0
    <c0i> = 0
    <c1> = 0
    <c1i> = 0
    <Mu_ssd> = 0
    <Sigma_ssd> = 0
    <innerangle> = 0
    <outerangle> = 0
  <EndBdry>
[BlockProps]  = 7
  <BeginBlock>
    <BlockName> = "Air"
    <Mu_x> = 1
    <Mu_y> = 1
    <H_c> = 0
    <H_cAngle> = 0
    <J_re> = 0
    <J_im> = 0
    <Sigma> = 0
    <d_lam> = 0
    <Phi_h> = 0
    <Phi_hx> = 0
    <Phi_hy> = 0
    <LamType> = 0
    <LamFill> = 1
    <NStrands> = 0
    <WireD> = 0
    <BHPoints> = 0
  <EndBlock>
  <BeginBlock>
    <BlockName> = "Pure Iron"
    <Mu_x> = 14872
    <Mu_y> = 14872
    <H_c> = 0
    <H_cAngle> = 0
    <J_re> = 0
    <J_im> = 0
    <Sigma> = 10.44
    <d_lam> = 0
    <Phi_h> = 0
    <Phi_hx> = 0
    <Phi_hy> = 0
    <LamType> = 0
    <LamFill> = 1
    <NStrands> = 0
    <WireD> = 0
    <BHPoints> = 21
      0	0
      0.22706499999999999	13.898400000000001
      0.45412999999999998	27.796700000000001
      0.68119499999999999	42.397399999999998
      0.90825999999999996	61.415700000000001
      1.13533	82.382400000000004
      1.36239	144.66900000000001
      1.58935	897.75999999999999
      1.81236	4581.7399999999998
      2.01004	17736.200000000001
      2.1331600000000002	41339.300000000003
      2.1999900000000001	68321.800000000003
      2.2547899999999998	95685.5
      2.2999299999999998	123355
      2.3425099999999999	151083
      2.3787600000000002	178954
      2.4150100000000001	206825
      2.45126	234696
      2.4874999999999998	262568
      2.5237500000000002	290439
      2.5600000000000001	318310
  <EndBlock>
  <BeginBlock>
    <BlockName> = "Copper"
    <Mu_x> = 1
    <Mu_y> = 1
    <H_c> = 0
    <H_cAngle> = 0
    <J_re> = 0
    <J_im> = 0
    <Sigma> = 58
    <d_lam> = 0
    <Phi_h> = 0
    <Phi_hx> = 0
    <Phi_hy> = 0
    <LamType> = 0
    <LamFill> = 1
    <NStrands> = 0
    <WireD> = 0
    <BHPoints> = 0
  <EndBlock>
  <BeginBlock>
    <BlockName> = "N40"
    <Mu_x> = 1.05
    <Mu_y> = 1.05
    <H_c> = 969969
    <H_cAngle> = 0
    <J_re> = 0
    <J_im> = 0
    <Sigma> = 0.66700000000000004
    <d_lam> = 0
    <Phi_h> = 0
    <Phi_hx> = 0
    <Phi_hy> = 0
    <LamType> = 0
    <LamFill> = 1
    <NStrands> = 0
    <WireD> = 0
    <BHPoints> = 0
  <EndBlock>
  <BeginBlock>
    <BlockName> = "Air"
    <Mu_x> = 1
    <Mu_y> = 1
    <H_c> = 0
    <H_cAngle> = 0
    <J_re> = 0
    <J_im> = 0
    <Sigma> = 0
    <d_lam> = 0
    <Phi_h> = 0
    <Phi_hx> = 0
    <Phi_hy> = 0
    <LamType> = 0
    <LamFill> = 1
    <NStrands> = 0
    <WireD> = 0
    <BHPoints> = 0
  <EndBlock>
  <BeginBlock>
    <BlockName> = "N40"
    <Mu_x> = 1.05
    <Mu_y> = 1.05
    <H_c> = 969969
    <H_cAngle> = 0
    <J_re> = 0
    <J_im> = 0
    <Sigma> = 0.66700000000000004
    <d_lam> = 0
    <Phi_h> = 0
    <Phi_hx> = 0
    <Phi_hy> = 0
    <LamType> = 0
    <LamFill> = 1
    <NStrands> = 0
    <WireD> = 0
    <BHPoints> = 0
  <EndBlock>
  <BeginBlock>
    <BlockName> = "Air"
    <Mu_x> = 1
    <Mu_y> = 1
    <H_c> = 0
    <H_cAngle> = 0
    <J_re> = 0
    <J_im> = 0
    <Sigma> = 0
    <d_lam> = 0
    <Phi_h> = 0
    <Phi_hx> = 0
    <Phi_hy> = 0
    <LamType> = 0
    <LamFill> = 1
    <NStrands> = 0
    <WireD> = 0
    <BHPoints> = 0
  <EndBlock>
[CircuitProps]  = 6
  <BeginCircuit>
    <CircuitName> = "A+"
    <TotalAmps_re> = 2.1431318985078681e-016
    <TotalAmps_im> = 0
    <CircuitType> = 1
  <EndCircuit>
  <BeginCircuit>
    <CircuitName> = "B+"
    <TotalAmps_re> = 3.0310889132455356
    <TotalAmps_im> = 0
    <CircuitType> = 1
  <EndCircuit>
  <BeginCircuit>
    <CircuitName> = "C+"
    <TotalAmps_re> = -3.0310889132455348
    <TotalAmps_im> = -0
    <CircuitType> = 1
  <EndCircuit>
  <BeginCircuit>
    <CircuitName> = "A-"
    <TotalAmps_re> = -2.1431318985078681e-016
    <TotalAmps_im> = -0
    <CircuitType> = 1
  <EndCircuit>
  <BeginCircuit>
    <CircuitName> = "B-"
    <TotalAmps_re> = -3.0310889132455356
    <TotalAmps_im> = -0
    <CircuitType> = 1
  <EndCircuit>
  <BeginCircuit>
    <CircuitName> = "C-"
    <TotalAmps_re> = 3.0310889132455348
    <TotalAmps_im> = 0
    <CircuitType> = 1
  <EndCircuit>
[NumPoints] = 2984
74	0	0	0
0	74	0	0
54	0	0	0
0	54	0	0
31.5	0	0	0
0	31.5	0	0
30.800000000000001	0	0	0
0	30.800000000000001	0	0
31.266666666666666	0	0	0
0	31.266666666666666	0	0
31.033333333333335	0	0	0
0	31.033333333333335	0	0
15.800000000000001	0	0	0
0	15.800000000000001	0	0
0	0	0	0
27.944812599678542	1.2604663763789199	0	0
28.005526384150087	1.1382291304083016	0	0
28.082319313335297	1.0253976013284665	0	0
28.173760880261256	0.92407362704071883	0	0
28.278147701550218	0.83614468147371901	0	0
28.393535248229025	0.76324871451542586	0	0
28.517774068624671	0.70674364010580559	0	0
28.648549828582063	0.66768204086940375	0	0
28.783426423130432	0.64679156049260977	0	0
28.919891356509662	0.64446134909853681	0	0
29.055402545212466	0.66073481411652712	0	0
29.187435672190325	0.69530881168387404	0	0
29.31353121010391	0.74753929364241312	0	0
29.431340237663818	0.81645330493712398	0	0
29.538668195589846	0.90076710792790304	0	0
29.633515767098121	0.99891009599287339	0	0
29.714116121389949	1.1090540509580495	0	0
29.778967826366593	1.2291471993427963	0	0
29.826862817468477	1.3569524330176685	0	0
29.856908901632181	1.4900889822960919	0	0
29.868546377159106	1.6260767651690351	0	0
29.861558459899136	1.7623825865403409	0	0
29.836075321529179	1.8964673268583798	0	0
29.792571664701114	2.0258332411090993	0	0
22.499009875437714	19.634049030754984	0	0
22.438296090966169	19.7562862767256	0	0
22.361503161780959	19.869117805805438	0	0
22.270061594855001	19.970441780093186	0	0
22.165674773566039	20.058370725660183	0	0
22.050287226887232	20.131266692618475	0	0
21.926048406491585	20.187771767028096	0	0
21.795272646534194	20.226833366264501	0	0
21.660396051985824	20.247723846641293	0	0
21.523931118606594	20.250054058035364	0	0
21.38841992990379	20.233780593017375	0	0
21.256386802925931	20.199206595450029	0	0
21.130291265012346	20.14697611349149	0	0
21.012482237452438	20.078062102196778	0	0
20.90515427952641	19.993748299206	0	0
20.810306708018135	19.895605311141026	0	0
20.729706353726307	19.785461356175851	0	0
20.664854648749664	19.665368207791104	0	0
20.616959657647779	19.537562974116234	0	0
20.586913573484075	19.404426424837808	0	0
20.575276097957151	19.268438641964867	0	0
20.58226401521712	19.132132820593561	0	0
20.607747153587077	18.99804808027552	0	0
20.651250810415142	18.868682166024801	0	0
18.868682166024801	20.651250810415142	0	0
18.99804808027552	20.607747153587077	0	0
19.132132820593561	20.58226401521712	0	0
19.268438641964867	20.575276097957151	0	0
19.404426424837808	20.586913573484075	0	0
19.537562974116234	20.616959657647779	0	0
19.665368207791104	20.664854648749664	0	0
19.785461356175851	20.729706353726307	0	0
19.895605311141026	20.810306708018135	0	0
19.993748299206	20.90515427952641	0	0
20.078062102196778	21.012482237452438	0	0
20.14697611349149	21.130291265012346	0	0
20.199206595450029	21.256386802925931	0	0
20.233780593017375	21.38841992990379	0	0
20.250054058035364	21.523931118606594	0	0
20.247723846641293	21.660396051985824	0	0
20.226833366264501	21.795272646534194	0	0
20.187771767028096	21.926048406491585	0	0
20.131266692618475	22.050287226887232	0	0
20.058370725660183	22.165674773566039	0	0
19.970441780093186	22.270061594855001	0	0
19.869117805805438	22.361503161780959	0	0
19.7562862767256	22.438296090966169	0	0
19.634049030754984	22.499009875437714	0	0
2.0258332411090993	29.792571664701114	0	0
1.89646732685838	29.836075321529179	0	0
1.7623825865403406	29.861558459899136	0	0
1.6260767651690351	29.868546377159106	0	0
1.4900889822960921	29.856908901632181	0	0
1.3569524330176685	29.826862817468477	0	0
1.2291471993427963	29.778967826366593	0	0
1.1090540509580495	29.714116121389949	0	0
0.99891009599287339	29.633515767098121	0	0
0.90076710792790304	29.538668195589846	0	0
0.81645330493712398	29.431340237663818	0	0
0.74753929364241312	29.31353121010391	0	0
0.69530881168387404	29.187435672190325	0	0
0.66073481411652712	29.055402545212466	0	0
0.64446134909853681	28.919891356509662	0	0
0.64679156049260977	28.783426423130432	0	0
0.66768204086940375	28.648549828582063	0	0
0.70674364010580559	28.517774068624671	0	0
0.76324871451542586	28.393535248229025	0	0
0.83614468147371901	28.278147701550218	0	0
0.92407362704071883	28.173760880261256	0	0
1.0253976013284665	28.082319313335297	0	0
1.1382291304083016	28.005526384150087	0	0
1.2604663763789199	27.944812599678542	0	0
33.777777777777779	0	0	0
36.055555555555557	0	0	0
38.333333333333336	0	0	0
40.611111111111114	0	0	0
42.888888888888886	0	0	0
45.166666666666664	0	0	0
47.444444444444443	0	0	0
49.722222222222221	0	0	0
52	0	0	0
31.456830344769077	1.6485826216527308	0	0
33.731486507265608	1.7677922997616584	0	0
36.006142669762134	1.8870019778705862	0	0
38.280798832258668	2.0062116559795138	0	0
40.555454994755195	2.1254213340884416	0	0
42.830111157251721	2.2446310121973689	0	0
45.104767319748248	2.3638406903062963	0	0
47.379423482244782	2.4830503684152241	0	0
49.654079644741309	2.6022600465241519	0	0
51.928735807237842	2.7214697246330792	0	0
31.327439704100609	3.2926465929310846	0	0
33.592739576883901	3.5307392037074066	0	0
35.858039449667189	3.7688318144837285	0	0
38.123339322450477	4.0069244252600509	0	0
40.388639195233772	4.2450170360363728	0	0
42.653939068017053	4.4831096468126939	0	0
44.919238940800341	4.7212022575890158	0	0
47.184538813583629	4.9592948683653377	0	0
49.449838686366924	5.1973874791416597	0	0
51.715138559150212	5.4354800899179816	0	0
31.112182728746841	4.9276856487672722	0	0
33.361917282324654	5.2840085969144654	0	0
35.611651835902471	5.6403315450616578	0	0
37.86138638948028	5.9966544932088501	0	0
40.111120943058097	6.3529774413560434	0	0
42.360855496635907	6.7093003895032348	0	0
44.610590050213723	7.0656233376504272	0	0
46.860324603791533	7.4219462857976195	0	0
49.110059157369349	7.7782692339448127	0	0
51.359793710947166	8.1345921820920051	0	0
30.811649423114879	6.5492182607594192	0	0
33.039652291452995	7.0227948898443158	0	0
35.267655159791104	7.4963715189292124	0	0
37.49565802812922	7.969948148014109	0	0
39.723660896467337	8.4435247770990056	0	0
41.951663764805438	8.9171014061838996	0	0
44.179666633143555	9.3906780352687971	0	0
46.407669501481671	9.8642546643536928	0	0
48.63567236981978	10.337831293438589	0	0
50.863675238157896	10.811407922523486	0	0
30.426663528105653	8.1527999207294037	0	0
32.626827910208533	8.7423321901295896	0	0
34.826992292311409	9.3318644595297755	0	0
37.027156674414286	9.9213967289299632	0	0
39.227321056517169	10.510928998330149	0	0
41.427485438620039	11.100461267730333	0	0
43.627649820722915	11.689993537130519	0	0
45.827814202825792	12.279525806530705	0	0
48.027978584928675	12.869058075930893	0	0
50.228142967031552	13.458590345331078	0	0
31.953803412169034	0.33463167909247671	0	0
33.320395143635231	0.34894311738467931	0	0
33.292992971849735	1.3953898392652186	0	0
31.927525104047962	1.3381597791686457	0	0
34.231456297946032	0.3584840762461477	0	0
35.598048029412233	0.3727955145383503	0	0
35.568772751519361	1.4907732727595067	0	0
34.203304883717585	1.4335432126629337	0	0
36.509109183723034	0.38233647339981869	0	0
37.875700915189235	0.39664791169202124	0	0
37.844552531188981	1.5861567062537947	0	0
36.479084663387212	1.528926646157222	0	0
38.786762069500035	0.40618887055348968	0	0
40.153353800966237	0.42050030884569223	0	0
40.120332310858608	1.6815401397480827	0	0
38.754864443056832	1.62431007965151	0	0
41.064414955277037	0.43004126770716061	0	0
42.431006686743231	0.44435270599936316	0	0
42.39611209052822	1.7769235732423705	0	0
41.030644222726451	1.719693513145798	0	0
43.342067841054032	0.45389366486083155	0	0
44.708659572520226	0.46820510315303415	0	0
44.671891870197847	1.8723070067366585	0	0
43.306424002396071	1.8150769466400858	0	0
45.619720726831027	0.47774606201450254	0	0
46.986312458297228	0.49205750030670514	0	0
46.947671649867466	1.9676904402309467	0	0
45.58220378206569	1.9104603801343738	0	0
47.897373612608028	0.50159845916817347	0	0
49.263965344074229	0.51590989746037608	0	0
49.223451429537086	2.0630738737252345	0	0
47.857983561735317	2.0058438136286618	0	0
50.17502649838503	0.52545085632184452	0	0
51.541618229851231	0.53976229461404712	0	0
51.499231209206712	2.158457307219523	0	0
50.133763341404936	2.1012272471229498	0	0
31.89249856621899	2.0065059351811696	0	0
33.256468428404297	2.0923196452045647	0	0
33.174337020495969	3.1358981293580497	0	0
31.813735668871757	3.0072834344894135	0	0
34.165781669861161	2.1495287852201614	0	0
35.529751532046468	2.2353424952435561	0	0
35.442005939869652	3.3502559541391101	0	0
34.081404588245441	3.221641259270474	0	0
36.43906477350334	2.2925516352591528	0	0
37.803034635688647	2.3783653452825479	0	0
37.709674859243336	3.5646137789201706	0	0
36.349073507619124	3.4359990840515344	0	0
38.712347877145511	2.4355744852981447	0	0
40.076317739330818	2.5213881953215393	0	0
39.977343778617012	3.7789716037012311	0	0
38.616742426992808	3.6503569088325949	0	0
40.98563098078769	2.5785973353371361	0	0
42.34960084297299	2.6644110453605307	0	0
42.245012697990688	3.9933294284822907	0	0
40.884411346366491	3.8647147336136554	0	0
43.258914084429854	2.7216201853761275	0	0
44.622883946615161	2.8074338953995222	0	0
44.512681617364372	4.2076872532633516	0	0
43.152080265740167	4.0790725583947154	0	0
45.532197188072033	2.8646430354151189	0	0
46.89616705025734	2.950456745438514	0	0
46.780350536738055	4.4220450780444116	0	0
45.419749185113851	4.2934303831757754	0	0
47.805480291714204	3.0076658854541107	0	0
49.169450153899511	3.0934795954775054	0	0
49.048019456111739	4.6364029028254725	0	0
47.687418104487527	4.5077882079568363	0	0
50.078763395356383	3.1506887354931021	0	0
51.442733257541683	3.2365024455164972	0	0
51.315688375485422	4.8507607276065325	0	0
49.955087023861211	4.7221460327378963	0	0
31.743778598519334	3.6728804979720486	0	0
33.101388044839879	3.8299612703122996	0	0
32.964752517288915	4.8678111406519164	0	0
31.612746995572827	4.668164334949954	0	0
34.006461009053574	3.9346817852058003	0	0
35.364070455374112	4.0917625575460512	0	0
35.218095053482386	5.2005558168218542	0	0
33.866089531766299	5.0009090111198917	0	0
36.269143419587813	4.1964830724395519	0	0
37.626752865908351	4.3535638447798037	0	0
37.471437589675858	5.5333004929917919	0	0
36.119432067959778	5.3336536872898286	0	0
38.531825830122045	4.4582843596733044	0	0
39.88943527644259	4.6153651320135554	0	0
39.724780125869337	5.8660451691617297	0	0
38.37277460415325	5.6663983634597663	0	0
40.794508240656285	4.720085646907056	0	0
42.152117686976823	4.8771664192473061	0	0
41.978122662062802	6.1987898453316657	0	0
40.626117140346722	5.9991430396297041	0	0
43.057190651190517	4.9818869341408067	0	0
44.414800097511055	5.1389677064810577	0	0
44.231465198256274	6.5315345215016034	0	0
42.879459676540193	6.3318877157996409	0	0
45.319873061724749	5.2436882213745584	0	0
46.677482508045294	5.4007689937148093	0	0
46.484807734449753	6.8642791976715412	0	0
45.132802212733665	6.6646323919695787	0	0
47.582555472258989	5.5054895086083109	0	0
48.940164918579534	5.6625702809485619	0	0
48.738150270643224	7.1970238738414789	0	0
47.386144748927137	6.9973770681395164	0	0
49.845237882793228	5.7672907958420625	0	0
51.202847329113766	5.9243715681823135	0	0
50.991492806836696	7.5297685500114167	0	0
49.639487285120616	7.3301217443094542	0	0
31.508051140164138	5.3291879506167792	0	0
32.855579057493827	5.5571052377954517	0	0
32.664813918783821	6.5863818199666593	0	0
31.325109980134133	6.3162501214485207	0	0
33.753931002380291	5.7090500959145674	0	0
35.101458919709977	5.9369673830932408	0	0
34.8976538165333	7.036601317496892	0	0
33.557949877883615	6.7664696189787525	0	0
35.999810864596441	6.0889122412123564	0	0
37.347338781926133	6.316829528391029	0	0
37.130493714282778	7.4868208150271238	0	0
35.790789775633094	7.2166891165089844	0	0
38.24569072681259	6.4687743865101446	0	0
39.593218644142283	6.696691673688818	0	0
39.363333612032257	7.9370403125573556	0	0
38.023629673382572	7.6669086140392162	0	0
40.49157058902874	6.8486365318079336	0	0
41.839098506358425	7.0765538189866053	0	0
41.596173509781728	8.3872598100875866	0	0
40.256469571132051	8.117128111569448	0	0
42.737450451244882	7.2284986771057209	0	0
44.084978368574575	7.4564159642843935	0	0
43.829013407531207	8.8374793076178175	0	0
42.489309468881522	8.567347609099679	0	0
44.983330313461039	7.6083608224035091	0	0
46.330858230790724	7.8362781095821825	0	0
46.061853305280685	9.2876988051480502	0	0
44.722149366631001	9.0175671066299117	0	0
47.229210175677188	7.9882229677012981	0	0
48.576738093006881	8.2161402548799707	0	0
48.294693203030164	9.7379183026782812	0	0
46.954989264380472	9.4677866041601426	0	0
49.475090037893338	8.3680851129990863	0	0
50.822617955223031	8.5960024001777597	0	0
50.527533100779642	10.188137800208514	0	0
49.187829162129951	9.9180061016903753	0	0
31.185962303731529	6.9708884695161828	0	0
32.519715211714484	7.2690175660914571	0	0
32.275343335830719	8.2868996845266611	0	0
30.951613015621589	7.9470235054013596	0	0
33.408883817036454	7.4677702971416409	0	0
34.742636725019409	7.7658993937169152	0	0
34.481560536179266	8.853359983068831	0	0
33.157830215970137	8.5134838039435294	0	0
35.631805330341379	7.9646521247670989	0	0
36.965558238324334	8.2627812213423741	0	0
36.687777736527813	9.4198202816110008	0	0
35.364047416318691	9.0799441024856993	0	0
37.854726843646304	8.461533952392557	0	0
39.188479751629259	8.7596630489678322	0	0
38.893994936876368	9.9862805801531707	0	0
37.570264616667238	9.6464044010278691	0	0
40.077648356951229	8.9584157800180151	0	0
41.411401264934177	9.2565448765932885	0	0
41.100212137224908	10.552740878695337	0	0
39.776481817015785	10.212864699570037	0	0
42.300569870256147	9.4552976076434714	0	0
43.634322778239103	9.7534267042187466	0	0
43.306429337573455	11.119201177237507	0	0
41.982699017364325	10.779324998112205	0	0
44.523491383561073	9.9521794352689295	0	0
45.857244291544028	10.250308531844205	0	0
45.512646537922009	11.685661475779677	0	0
44.18891621771288	11.345785296654375	0	0
46.746412896865998	10.449061262894389	0	0
48.080165804848953	10.747190359469663	0	0
47.718863738270556	12.252121774321846	0	0
46.395133418061427	11.912245595196545	0	0
48.969334410170923	10.945943090519847	0	0
50.303087318153878	11.244072187095123	0	0
49.925080938619104	12.818582072864016	0	0
48.601350618409974	12.478705893738713	0	0
29.958280263297336	9.7340353228108434	0	0
32.124575661525185	10.437907365553778	0	0
34.290871059753037	11.141779408296715	0	0
36.45716645798089	11.84565145103965	0	0
38.623461856208735	12.549523493782587	0	0
40.78975725443658	13.25339553652552	0	0
42.956052652664432	13.957267579268457	0	0
45.122348050892285	14.661139622011392	0	0
47.28864344912013	15.365011664754329	0	0
49.454938847347982	16.068883707497264	0	0
29.407783434661855	11.288590410676958	0	0
31.534272183905482	12.104872962419032	0	0
33.660760933149106	12.921155514161105	0	0
35.787249682392734	13.737438065903177	0	0
37.913738431636361	14.553720617645251	0	0
40.040227180879981	15.370003169387321	0	0
42.166715930123608	16.186285721129394	0	0
44.293204679367236	17.002568272871468	0	0
46.419693428610863	17.818850824613541	0	0
48.54618217785449	18.635133376355615	0	0
28.776681915741928	12.812204256887707	0	0
30.857535458150075	13.738659943893696	0	0
32.938389000558224	14.665115630899686	0	0
35.019242542966367	15.591571317905675	0	0
37.100096085374517	16.518027004911666	0	0
39.18094962778266	17.444482691917653	0	0
41.261803170190802	18.370938378923643	0	0
43.342656712598952	19.29739406592963	0	0
45.423510255007095	20.223849752935621	0	0
47.504363797415245	21.150305439941611	0	0
28.066705511933588	14.300700741795724	0	0
30.09622037258487	15.334790213424693	0	0
32.125735233236156	16.36887968505366	0	0
34.155250093887439	17.40296915668263	0	0
36.184764954538721	18.437058628311597	0	0
38.214279815189997	19.47114809994056	0	0
40.243794675841279	20.505237571569531	0	0
42.273309536492562	21.539327043198497	0	0
44.302824397143844	22.573416514827464	0	0
46.332339257795134	23.607505986456434	0	0
27.279800219209815	15.75	0	0
29.252413638941039	16.888888888888889	0	0
31.225027058672261	18.027777777777779	0	0
33.197640478403478	19.166666666666668	0	0
35.170253898134703	20.305555555555557	0	0
37.142867317865921	21.444444444444443	0	0
39.115480737597139	22.583333333333332	0	0
41.088094157328364	23.722222222222221	0	0
43.060707577059588	24.861111111111111	0	0
45.033320996790806	26	0	0
30.778394912334058	8.5934822676611571	0	0
32.094717086957523	8.9610060225020209	0	0
31.797408280225717	9.9647037330667096	0	0
30.493279831253471	9.5560146503167243	0	0
32.972265203373169	9.2060218590625968	0	0
34.288587377996635	9.5735456139034589	0	0
33.970955695179462	10.645852204316686	0	0
32.666827246207212	10.2371631215667	0	0
35.166135494412281	9.8185614504640348	0	0
36.482457669035746	10.186085205304899	0	0
36.144503110133201	11.32700067556666	0	0
34.840374661160958	10.918311592816675	0	0
37.360005785451392	10.431101041865473	0	0
38.676327960074858	10.798624796706337	0	0
38.318050525086946	12.008149146816637	0	0
37.013922076114703	11.599460064066651	0	0
39.553876076490504	11.043640633266913	0	0
40.870198251113962	11.411164388107775	0	0
40.491597940040684	12.689297618066609	0	0
39.187469491068441	12.280608535316626	0	0
41.747746367529608	11.656180224668349	0	0
43.064068542153073	12.023703979509213	0	0
42.665145354994422	13.370446089316586	0	0
41.361016906022179	12.9617570065666	0	0
43.941616658568719	12.268719816069789	0	0
45.257938833192185	12.636243570910651	0	0
44.838692769948167	14.05159456056656	0	0
43.534564320975925	13.642905477816575	0	0
46.135486949607824	12.881259407471227	0	0
47.451809124231296	13.24878316231209	0	0
47.012240184901913	14.732743031816536	0	0
45.708111735929663	14.324053949066551	0	0
48.329357240646935	13.493798998872666	0	0
49.645679415270408	13.861322753713528	0	0
49.185787599855651	15.413891503066511	0	0
47.881659150883408	15.005202420316525	0	0
30.286466079861871	10.192521928236102	0	0
31.581749573541639	10.628432984276799	0	0
31.232318738735362	11.615195221312488	0	0
29.951366686429775	11.138813423306006	0	0
32.445271902661482	10.919040354970596	0	0
33.74055539634125	11.354951411011292	0	0
33.367238825911336	12.409164884656622	0	0
32.08628677360575	11.932783086650142	0	0
34.604077725461096	11.645558781705089	0	0
35.899361219140864	12.081469837745784	0	0
35.502158913087314	13.203134548000758	0	0
34.221206860781727	12.726752749994278	0	0
36.76288354826071	12.372077208439581	0	0
38.058167041940479	12.807988264480278	0	0
37.637079000263292	13.997104211344892	0	0
36.356126947957705	13.520722413338412	0	0
38.921689371060324	13.098595635174075	0	0
40.216972864740079	13.534506691214769	0	0
39.771999087439255	14.791073874689026	0	0
38.491047035133676	14.314692076682547	0	0
41.080495193859925	13.825114061908566	0	0
42.375778687539693	14.261025117949261	0	0
41.906919174615233	15.58504353803316	0	0
40.625967122309646	15.10866174002668	0	0
43.239301016659539	14.551632488643058	0	0
44.534584510339307	14.987543544683755	0	0
44.04183926179121	16.379013201377294	0	0
42.760887209485624	15.902631403370814	0	0
45.398106839459153	15.278150915377552	0	0
46.693390333138922	15.714061971418248	0	0
46.176759348967188	17.17298286472143	0	0
44.895807296661602	16.696601066714948	0	0
47.556912662258767	16.004669342112045	0	0
48.852196155938529	16.44058039815274	0	0
48.311679436143159	17.966952528065566	0	0
47.030727383837572	17.490570730059083	0	0
29.711524149051233	11.763624594679266	0	0
30.982218679765175	12.266728150014991	0	0
30.581623582513995	13.233850266818965	0	0
29.327358927412554	12.691081482951432	0	0
31.829348366907805	12.602130520238809	0	0
33.100042897621748	13.105234075574536	0	0
32.672064674349727	14.138464906598189	0	0
31.41780001924829	13.595696122730654	0	0
33.947172584764381	13.440636445798354	0	0
35.21786711547832	13.943740001134081	0	0
34.762505766185463	15.043079546377411	0	0
33.508241111084025	14.500310762509878	0	0
36.064996802620954	14.279142371357899	0	0
37.335691333334893	14.782245926693626	0	0
36.852946858021198	15.947694186156633	0	0
35.598682202919761	15.4049254022891	0	0
38.182821020477526	15.117648296917443	0	0
39.453515551191465	15.620751852253168	0	0
38.943387949856927	16.852308825935854	0	0
37.689123294755497	16.309540042068324	0	0
40.300645238334091	15.956154222476986	0	0
41.571339769048038	16.459257777812713	0	0
41.033829041692663	17.756923465715076	0	0
39.779564386591225	17.214154681847543	0	0
42.418469456190664	16.794660148036531	0	0
43.68916398690461	17.297763703372258	0	0
43.124270133528398	18.661538105494298	0	0
41.870005478426961	18.118769321626765	0	0
44.536293674047236	17.633166073596076	0	0
45.806988204761183	18.1362696289318	0	0
45.214711225364134	19.566152745273524	0	0
43.960446570262697	19.023383961405987	0	0
46.654117891903809	18.471671999155618	0	0
47.924812422617755	18.974775554491345	0	0
47.30515231719987	20.470767385052746	0	0
46.050887662098432	19.927998601185212	0	0
29.055144995770767	13.302483983787932	0	0
30.297767678135095	13.871401066543815	0	0
29.847106321755547	14.81623224861775	0	0
28.622966916095017	14.208564170398349	0	0
31.126182799711312	14.250679121714402	0	0
32.368805482075643	14.819596204470283	0	0
31.887338664523099	15.829012378983418	0	0
30.663199258862569	15.221344300764017	0	0
33.197220603651857	15.198874259640872	0	0
34.439843286016185	15.767791342396754	0	0
33.927571007290652	16.841792509349087	0	0
32.703431601630122	16.234124431129686	0	0
35.268258407592405	16.147069397567343	0	0