[Format]      =  4.0
[Frequency]   =  0
[Precision]   =  1e-008
[MinAngle]    =  25
[DoSmartMesh] =  1
[Depth]       =  36
[LengthUnits] =  millimeters
[ProblemType] =  planar
[Coordinates] =  cartesian
[ACSolver]    =  0
[PrevType]    =  0
[PrevSoln]    =  ""
[Comment]     =  "Add comments here."
[PointProps]   = 0
[BdryProps]   = 26
  <BeginBdry>
    <BdryName> = "Air gap"
    <BdryType> = 6
    <A_0> = 0
    <A_1> = 0
    <A_2> = 0
    <Phi> = 0
    <c0> = 0
    <c0i> = 0
    <c1> = 0
    <c1i> = 0
    <Mu_ssd> = 0
    <Sigma_ssd> = 0
    <innerangle> = 0
    <outerangle> = 0
  <EndBdry>
  <BeginBdry>
    <BdryName> = "apbc1"
    <BdryType> = 4
    <A_0> = 0
    <A_1> = 0
    <A_2> = 0
    <Phi> = 0
    <c0> = 0
    <c0i> = 0
    <c1> = 0
    <c1i> = 0
    <Mu_ssd> = 0
    <Sigma_ssd> = 0
    <innerangle> = 0
    <outerangle> = 0
  <EndBdry>
  <BeginBdry>
    <BdryName> = "apbc2"
    <BdryType> = 4
    <A_0> = 0
    <A_1> = 0
    <A_2> = 0
    <Phi> = 0
    <c0> = 0
    <c0i> = 0
    <c1> = 0
    <c1i> = 0
    <Mu_ssd> = 0
    <Sigma_ssd> = 0
    <innerangle> = 0
    <outerangle> = 0
  <EndBdry>
  <BeginBdry>
    <BdryName> = "apbc3"
    <BdryType> = 4
    <A_0> = 0
    <A_1> = 0
    <A_2> = 0
    <Phi> = 0
    <c0> = 0
    <c0i> = 0
    <c1> = 0
    <c1i> = 0
    <Mu_ssd> = 0
    <Sigma_ssd> = 0
    <innerangle> = 0
    <outerangle> = 0
  <EndBdry>
  <BeginBdry>
    <BdryName> = "apbc4"
    <BdryType> = 4
    <A_0> = 0
    <A_1> = 0
    <A_2> = 0
    <Phi> = 0
    <c0> = 0
    <c0i> = 0
    <c1> = 0
    <c1i> = 0
    <Mu_ssd> = 0
    <Sigma_ssd> = 0
    <innerangle> = 0
    <outerangle> = 0
  <EndBdry>
  <BeginBdry>
    <BdryName> = "apbc6"
    <BdryType> = 4
    <A_0> = 0
    <A_1> = 0
    <A_2> = 0
    <Phi> = 0
    <c0> = 0
    <c0i> = 0
    <c1> = 0
    <c1i> = 0
    <Mu_ssd> = 0
    <Sigma_ssd> = 0
    <innerangle> = 0
    <outerangle> = 0
  <EndBdry>
  <BeginBdry>
    <BdryName> = "apbc7"
    <BdryType> = 4
    <A_0> = 0
    <A_1> = 0
    <A_2> = 0
    <Phi> = 0
    <c0> = 0
    <c0i> = 0
    <c1> = 0
    <c1i> = 0
    <Mu_ssd> = 0
    <Sigma_ssd> = 0
    <innerangle> = 0
    <outerangle> = 0
  <EndBdry>
  <BeginBdry>
    <BdryName> = "apbc8"
    <BdryType> = 4
    <A_0> = 0
    <A_1> = 0
    <A_2> = 0
    <Phi> = 0
    <c0> = 0
    <c0i> = 0
    <c1> = 0
    <c1i> = 0
    <Mu_ssd> = 0
    <Sigma_ssd> = 0
    <innerangle> = 0
    <outerangle> = 0
  <EndBdry>
  <BeginBdry>
    <BdryName> = "apbc3_01"
    <BdryType> = 4
    <A_0> = 0
    <A_1> = 0
    <A_2> = 0
    <Phi> = 0
    <c0> = 0
    <c0i> = 0
    <c1> = 0
    <c1i> = 0
    <Mu_ssd> = 0
    <Sigma_ssd> = 0
    <innerangle> = 0
    <outerangle> = 0
  <EndBdry>
  <BeginBdry>
    <BdryName> = "apbc3_02"
    <BdryType> = 4
    <A_0> = 0
    <A_1> = 0
    <A_2> = 0
    <Phi> = 0
    <c0> = 0
    <c0i> = 0
    <c1> = 0
    <c1i> = 0
    <Mu_ssd> = 0
    <Sigma_ssd> = 0
    <innerangle> = 0
    <outerangle> = 0
  <EndBdry>
  <BeginBdry>
    <BdryName> = "apbc3_03"
    <BdryType> = 4
    <A_0> = 0
    <A_1> = 0
    <A_2> = 0
    <Phi> = 0
    <c0> = 0
    <c0i> = 0
    <c1> = 0
    <c1i> = 0
    <Mu_ssd> = 0
    <Sigma_ssd> = 0
    <innerangle> = 0
    <outerangle> = 0
  <EndBdry>
  <BeginBdry>
    <BdryName> = "apbc3_04"
    <BdryType> = 4
    <A_0> = 0
    <A_1> = 0
    <A_2> = 0
    <Phi> = 0
    <c0> = 0
    <c0i> = 0
    <c1> = 0
    <c1i> = 0
    <Mu_ssd> = 0
    <Sigma_ssd> = 0
    <innerangle> = 0
    <outerangle> = 0
  <EndBdry>
  <BeginBdry>
    <BdryName> = "apbc3_05"
    <BdryType> = 4
    <A_0> = 0
    <A_1> = 0
    <A_2> = 0
    <Phi> = 0
    <c0> = 0
    <c0i> = 0
    <c1> = 0
    <c1i> = 0
    <Mu_ssd> = 0
    <Sigma_ssd> = 0
    <innerangle> = 0
    <outerangle> = 0
  <EndBdry>
  <BeginBdry>
    <BdryName> = "apbc3_06"
    <BdryType> = 4
    <A_0> = 0
    <A_1> = 0
    <A_2> = 0
    <Phi> = 0
    <c0> = 0
    <c0i> = 0
    <c1> = 0
    <c1i> = 0
    <Mu_ssd> = 0
    <Sigma_ssd> = 0
    <innerangle> = 0
    <outerangle> = 0
  <EndBdry>
  <BeginBdry>
    <BdryName> = "apbc3_07"
    <BdryType> = 4
    <A_0> = 0
    <A_1> = 0
    <A_2> = 0
    <Phi> = 0
    <c0> = 0
    <c0i> = 0
    <c1> = 0
    <c1i> = 0
    <Mu_ssd> = 0
    <Sigma_ssd> = 0
    <innerangle> = 0
    <outerangle> = 0
  <EndBdry>
  <BeginBdry>
    <BdryName> = "apbc3_08"
    <BdryType> = 4
    <A_0> = 0
    <A_1> = 0
    <A_2> = 0
    <Phi> = 0
    <c0> = 0
    <c0i> = 0
    <c1> = 0
    <c1i> = 0
    <Mu_ssd> = 0
    <Sigma_ssd> = 0
    <innerangle> = 0
    <outerangle> = 0
  <EndBdry>
  <BeginBdry>
    <BdryName> = "apbc3_09"
    <BdryType> = 4
    <A_0> = 0
    <A_1> = 0
    <A_2> = 0
    <Phi> = 0
    <c0> = 0
    <c0i> = 0
    <c1> = 0
    <c1i> = 0
    <Mu_ssd> = 0
    <Sigma_ssd> = 0
    <innerangle> = 0
    <outerangle> = 0
  <EndBdry>
  <BeginBdry>
    <BdryName> = "apbc3_10"
    <BdryType> = 4
    <A_0> = 0
    <A_1> = 0
    <A_2> = 0
    <Phi> = 0
    <c0> = 0
    <c0i> = 0
    <c1> = 0
    <c1i> = 0
    <Mu_ssd> = 0
    <Sigma_ssd> = 0
    <innerangle> = 0
    <outerangle> = 0
  <EndBdry>
  <BeginBdry>
    <BdryName> = "apbc3_11"
    <BdryType> = 4
    <A_0> = 0
    <A_1> = 0
    <A_2> = 0
    <Phi> = 0
    <c0> = 0
    <c0i> = 0
    <c1> = 0
    <c1i> = 0
    <Mu_ssd> = 0
    <Sigma_ssd> = 0
    <innerangle> = 0
    <outerangle> = 0
  <EndBdry>
  <BeginBdry>
    <BdryName> = "apbc3_12"
    <BdryType> = 4
    <A_0> = 0
    <A_1> = 0
    <A_2> = 0
    <Phi> = 0
    <c0> = 0
    <c0i> = 0
    <c1> = 0
    <c1i> = 0
    <Mu_ssd> = 0
    <Sigma_ssd> = 0
    <innerangle> = 0
    <outerangle> = 0
  <EndBdry>
  <BeginBdry>
    <BdryName> = "apbc3_13"
    <BdryType> = 4
    <A_0> = 0
    <A_1> = 0
    <A_2> = 0
    <Phi> = 0
    <c0> = 0
    <c0i> = 0
    <c1> = 0
    <c1i> = 0
    <Mu_ssd> = 0
    <Sigma_ssd> = 0
    <innerangle> = 0
    <outerangle> = 0
  <EndBdry>
  <BeginBdry>
    <BdryName> = "apbc3_14"
    <BdryType> = 4
    <A_0> = 0
    <A_1> = 0
    <A_2> = 0
    <Phi> = 0
    <c0> = 0
    <c0i> = 0
    <c1> = 0
    <c1i> = 0
    <Mu_ssd> = 0
    <Sigma_ssd> = 0
    <innerangle> = 0
    <outerangle> = 0
  <EndBdry>
  <BeginBdry>
    <BdryName> = "apbc3_15"
    <BdryType> = 4
    <A_0> = 0
    <A_1> = 0
    <A_2> = 0
    <Phi> = 0
    <c0> = 0
    <c0i> = 0
    <c1> = 0
    <c1i> = 0
    <Mu_ssd> = 0
    <Sigma_ssd> = 0
    <innerangle> = 0
    <outerangle> = 0
  <EndBdry>
  <BeginBdry>
    <BdryName> = "apbc3_16"
    <BdryType> = 4
    <A_0> = 0
    <A_1> = 0
    <A_2> = 0
    <Phi> = 0
    <c0> = 0
    <c0i> = 0
    <c1> = 0
    <c1i> = 0
    <Mu_ssd> = 0
    <Sigma_ssd> = 0
    <innerangle> = 0
    <outerangle> = 0
  <EndBdry>
  <BeginBdry>
    <BdryName> = "apbc3_17"
    <BdryType> = 4
    <A_0> = 0
    <A_1> = 0
    <A_2> = 0
    <Phi> = 0
    <c0> = 0
    <c0i> = 0
    <c1> = 0
    <c1i> = 0
    <Mu_ssd> = 0
    <Sigma_ssd> = 0
    <innerangle> = 0
    <outerangle> = 0
  <EndBdry>
  <BeginBdry>
    <BdryName> = "apbc3_18"
    <BdryType> = 4
    <A_0> = 0
    <A_1> = 0
    <A_2> = 0
    <Phi> = 0
    <c0> = 0
    <c0i> = 0
    <c1> = 0
    <c1i> = 0
    <Mu_ssd> = 0
    <Sigma_ssd> = 0
    <innerangle> = 0
    <outerangle> = 0
  <EndBdry>
[BlockProps]  = 7
  <BeginBlock>
    <BlockName> = "Air"
    <Mu_x> = 1
    <Mu_y> = 1
    <H_c> = 0
    <H_cAngle> = 0
    <J_re> = 0
    <J_im> = 0
    <Sigma> = 0
    <d_lam> = 0
    <Phi_h> = 0
    <Phi_hx> = 0
    <Phi_hy> = 0
    <LamType> = 0
    <LamFill> = 1
    <NStrands> = 0
    <WireD> = 0
    <BHPoints> = 0
  <EndBlock>
  <BeginBlock>
    <BlockName> = "Pure Iron"
    <Mu_x> = 14872
    <Mu_y> = 14872
    <H_c> = 0
    <H_cAngle> = 0
    <J_re> = 0
    <J_im> = 0
    <Sigma> = 10.44
    <d_lam> = 0
    <Phi_h> = 0
    <Phi_hx> = 0
    <Phi_hy> = 0
    <LamType> = 0
    <LamFill> = 1
    <NStrands> = 0
    <WireD> = 0
    <BHPoints> = 21
      0	0
      0.22706499999999999	13.898400000000001
      0.45412999999999998	27.796700000000001
      0.68119499999999999	42.397399999999998
      0.90825999999999996	61.415700000000001
      1.13533	82.382400000000004
      1.36239	144.66900000000001
      1.58935	897.75999999999999
      1.81236	4581.7399999999998
      2.01004	17736.200000000001
      2.1331600000000002	41339.300000000003
      2.1999900000000001	68321.800000000003
      2.2547899999999998	95685.5
      2.2999299999999998	123355
      2.3425099999999999	151083
      2.3787600000000002	178954
      2.4150100000000001	206825
      2.45126	234696
      2.4874999999999998	262568
      2.5237500000000002	290439
      2.5600000000000001	318310
  <EndBlock>
  <BeginBlock>
    <BlockName> = "Copper"
    <Mu_x> = 1
    <Mu_y> = 1
    <H_c> = 0
    <H_cAngle> = 0
    <J_re> = 0
    <J_im> = 0
    <Sigma> = 58
    <d_lam> = 0
    <Phi_h> = 0
    <Phi_hx> = 0
    <Phi_hy> = 0
    <LamType> = 0
    <LamFill> = 1
    <NStrands> = 0
    <WireD> = 0
    <BHPoints> = 0
  <EndBlock>
  <BeginBlock>
    <BlockName> = "N40"
    <Mu_x> = 1.05
    <Mu_y> = 1.05
    <H_c> = 969969
    <H_cAngle> = 0
    <J_re> = 0
    <J_im> = 0
    <Sigma> = 0.66700000000000004
    <d_lam> = 0
    <Phi_h> = 0
    <Phi_hx> = 0
    <Phi_hy> = 0
    <LamType> = 0
    <LamFill> = 1
    <NStrands> = 0
    <WireD> = 0
    <BHPoints> = 0
  <EndBlock>
  <BeginBlock>
    <BlockName> = "Air"
    <Mu_x> = 1
    <Mu_y> = 1
    <H_c> = 0
    <H_cAngle> = 0
    <J_re> = 0
    <J_im> = 0
    <Sigma> = 0
    <d_lam> = 0
    <Phi_h> = 0
    <Phi_hx> = 0
    <Phi_hy> = 0
    <LamType> = 0
    <LamFill> = 1
    <NStrands> = 0
    <WireD> = 0
    <BHPoints> = 0
  <EndBlock>
  <BeginBlock>
    <BlockName> = "N40"
    <Mu_x> = 1.05
    <Mu_y> = 1.05
    <H_c> = 969969
    <H_cAngle> = 0
    <J_re> = 0
    <J_im> = 0
    <Sigma> = 0.66700000000000004
    <d_lam> = 0
    <Phi_h> = 0
    <Phi_hx> = 0
    <Phi_hy> = 0
    <LamType> = 0
    <LamFill> = 1
    <NStrands> = 0
    <WireD> = 0
    <BHPoints> = 0
  <EndBlock>
  <BeginBlock>
    <BlockName> = "Air"
    <Mu_x> = 1
    <Mu_y> = 1
    <H_c> = 0
    <H_cAngle> = 0
    <J_re> = 0
    <J_im> = 0
    <Sigma> = 0
    <d_lam> = 0
    <Phi_h> = 0
    <Phi_hx> = 0
    <Phi_hy> = 0
    <LamType> = 0
    <LamFill> = 1
    <NStrands> = 0
    <WireD> = 0
    <BHPoints> = 0
  <EndBlock>
[CircuitProps]  = 6
  <BeginCircuit>
    <CircuitName> = "A+"
    <TotalAmps_re> = 0
    <TotalAmps_im> = 0
    <CircuitType> = 1
  <EndCircuit>
  <BeginCircuit>
    <CircuitName> = "B+"
    <TotalAmps_re> = 0
    <TotalAmps_im> = 0
    <CircuitType> = 1
  <EndCircuit>
  <BeginCircuit>
    <CircuitName> = "C+"
    <TotalAmps_re> = 0
    <TotalAmps_im> = 0
    <CircuitType> = 1
  <EndCircuit>
  <BeginCircuit>
    <CircuitName> = "A-"
    <TotalAmps_re> = 0
    <TotalAmps_im> = 0
    <CircuitType> = 1
  <EndCircuit>
  <BeginCircuit>
    <CircuitName> = "B-"
    <TotalAmps_re> = 0
    <TotalAmps_im> = 0
    <CircuitType> = 1
  <EndCircuit>
  <BeginCircuit>
    <CircuitName> = "C-"
    <TotalAmps_re> = 0
    <TotalAmps_im> = 0
    <CircuitType> = 1
  <EndCircuit>
[NumPoints] = 5588
74	0	0	0
0	74	0	0
54	0	0	0
0	54	0	0
31.5	0	0	0
0	31.5	0	0
30.800000000000001	0	0	0
0	30.800000000000001	0	0
31.266666666666666	0	0	0
0	31.266666666666666	0	0
31.033333333333335	0	0	0
0	31.033333333333335	0	0
15.800000000000001	0	0	0
0	15.800000000000001	0	0
0	0	0	0
27.944812599678542	1.2604663763789199	0	0
28.005526384150087	1.1382291304083016	0	0
28.082319313335297	1.0253976013284665	0	0
28.173760880261256	0.92407362704071883	0	0
28.278147701550218	0.83614468147371901	0	0
28.393535248229025	0.76324871451542586	0	0
28.517774068624671	0.70674364010580559	0	0
28.648549828582063	0.66768204086940375	0	0
28.783426423130432	0.64679156049260977	0	0
28.919891356509662	0.64446134909853681	0	0
29.055402545212466	0.66073481411652712	0	0
29.187435672190325	0.69530881168387404	0	0
29.31353121010391	0.74753929364241312	0	0
29.431340237663818	0.81645330493712398	0	0
29.538668195589846	0.90076710792790304	0	0
29.633515767098121	0.99891009599287339	0	0
29.714116121389949	1.1090540509580495	0	0
29.778967826366593	1.2291471993427963	0	0
29.826862817468477	1.3569524330176685	0	0
29.856908901632181	1.4900889822960919	0	0
29.868546377159106	1.6260767651690351	0	0
29.861558459899136	1.7623825865403409	0	0
29.836075321529179	1.8964673268583798	0	0
29.792571664701114	2.0258332411090993	0	0
22.499009875437714	19.634049030754984	0	0
22.438296090966169	19.7562862767256	0	0
22.361503161780959	19.869117805805438	0	0
22.270061594855001	19.970441780093186	0	0
22.165674773566039	20.058370725660183	0	0
22.050287226887232	20.131266692618475	0	0
21.926048406491585	20.187771767028096	0	0
21.795272646534194	20.226833366264501	0	0
21.660396051985824	20.247723846641293	0	0
21.523931118606594	20.250054058035364	0	0
21.38841992990379	20.233780593017375	0	0
21.256386802925931	20.199206595450029	0	0
21.130291265012346	20.14697611349149	0	0
21.012482237452438	20.078062102196778	0	0
20.90515427952641	19.993748299206	0	0
20.810306708018135	19.895605311141026	0	0
20.729706353726307	19.785461356175851	0	0
20.664854648749664	19.665368207791104	0	0
20.616959657647779	19.537562974116234	0	0
20.586913573484075	19.404426424837808	0	0
20.575276097957151	19.268438641964867	0	0
20.58226401521712	19.132132820593561	0	0
20.607747153587077	18.99804808027552	0	0
20.651250810415142	18.868682166024801	0	0
18.868682166024801	20.651250810415142	0	0
18.99804808027552	20.607747153587077	0	0
19.132132820593561	20.58226401521712	0	0
19.268438641964867	20.575276097957151	0	0
19.404426424837808	20.586913573484075	0	0
19.537562974116234	20.616959657647779	0	0
19.665368207791104	20.664854648749664	0	0
19.785461356175851	20.729706353726307	0	0
19.895605311141026	20.810306708018135	0	0
19.993748299206	20.90515427952641	0	0
20.078062102196778	21.012482237452438	0	0
20.14697611349149	21.130291265012346	0	0
20.199206595450029	21.256386802925931	0	0
20.233780593017375	21.38841992990379	0	0
20.250054058035364	21.523931118606594	0	0
20.247723846641293	21.660396051985824	0	0
20.226833366264501	21.795272646534194	0	0
20.187771767028096	21.926048406491585	0	0
20.131266692618475	22.050287226887232	0	0
20.058370725660183	22.165674773566039	0	0
19.970441780093186	22.270061594855001	0	0
19.869117805805438	22.361503161780959	0	0
19.7562862767256	22.438296090966169	0	0
19.634049030754984	22.499009875437714	0	0
2.0258332411090993	29.792571664701114	0	0
1.89646732685838	29.836075321529179	0	0
1.7623825865403406	29.861558459899136	0	0
1.6260767651690351	29.868546377159106	0	0
1.4900889822960921	29.856908901632181	0	0
1.3569524330176685	29.826862817468477	0	0
1.2291471993427963	29.778967826366593	0	0
1.1090540509580495	29.714116121389949	0	0
0.99891009599287339	29.633515767098121	0	0
0.90076710792790304	29.538668195589846	0	0
0.81645330493712398	29.431340237663818	0	0
0.74753929364241312	29.31353121010391	0	0
0.69530881168387404	29.187435672190325	0	0
0.66073481411652712	29.055402545212466	0	0
0.64446134909853681	28.919891356509662	0	0
0.64679156049260977	28.783426423130432	0	0
0.66768204086940375	28.648549828582063	0	0
0.70674364010580559	28.517774068624671	0	0
0.76324871451542586	28.393535248229025	0	0
0.83614468147371901	28.278147701550218	0	0
0.92407362704071883	28.173760880261256	0	0
1.0253976013284665	28.082319313335297	0	0
1.1382291304083016	28.005526384150087	0	0
1.2604663763789199	27.944812599678542	0	0
32.638888888888886	0	0	0
33.777777777777779	0	0	0
34.916666666666664	0	0	0
36.055555555555557	0	0	0
37.194444444444443	0	0	0
38.333333333333336	0	0	0
39.472222222222221	0	0	0
40.611111111111114	0	0	0
41.75	0	0	0
42.888888888888886	0	0	0
44.027777777777779	0	0	0
45.166666666666664	0	0	0
46.305555555555557	0	0	0
47.444444444444443	0	0	0
48.583333333333329	0	0	0
49.722222222222221	0	0	0
50.861111111111114	0	0	0
52	0	0	0
31.489205736730053	0.82457387169800445	0	0
32.6277043568411	0.85438650727085985	0	0
33.766202976952158	0.88419914284371548	0	0
34.904701597063202	0.914011778416571	0	0
36.04320021717426	0.94382441398942662	0	0
37.18169883728531	0.97363704956228203	0	0
38.320197457396361	1.0034496851351378	0	0
39.458696077507412	1.0332623207079932	0	0
40.59719469761847	1.0630749562808488	0	0
41.735693317729513	1.0928875918537042	0	0
42.874191937840564	1.1227002274265596	0	0
44.012690557951622	1.1525128629994155	0	0
45.151189178062666	1.1823254985722709	0	0
46.289687798173723	1.2121381341451265	0	0
47.428186418284774	1.2419507697179819	0	0
48.566685038395818	1.2717634052908373	0	0
49.705183658506876	1.3015760408636929	0	0
50.843682278617926	1.3313886764365486	0	0
51.982180898728977	1.3612013120094042	0	0
31.456830344769077	1.6485826216527308	0	0
32.594158426017337	1.7081874607071945	0	0
33.731486507265608	1.7677922997616584	0	0
34.868814588513864	1.8273971388161221	0	0
36.006142669762134	1.8870019778705862	0	0
37.143470751010398	1.9466068169250497	0	0
38.280798832258668	2.0062116559795138	0	0
39.418126913506924	2.0658164950339772	0	0
40.555454994755195	2.1254213340884416	0	0
41.692783076003458	2.185026173142905	0	0
42.830111157251721	2.2446310121973689	0	0
43.967439238499985	2.3042358512518328	0	0
45.104767319748248	2.3638406903062963	0	0
46.242095400996519	2.4234455293607606	0	0
47.379423482244782	2.4830503684152241	0	0
48.516751563493038	2.5426552074696875	0	0
49.654079644741309	2.6022600465241519	0	0
50.791407725989579	2.6618648855786158	0	0
51.928735807237842	2.7214697246330792	0	0
31.40289601259353	2.4714615154271158	0	0
32.538274087122922	2.5608177077838277	0	0
33.673652161652321	2.6501739001405404	0	0
34.809030236181712	2.7395300924972523	0	0
35.944408310711118	2.8288862848539651	0	0
37.07978638524051	2.918242477210677	0	0
38.215164459769909	3.0075986695673897	0	0
39.350542534299301	3.0969548619241016	0	0
40.4859206088287	3.1863110542808144	0	0
41.621298683358091	3.2756672466375263	0	0
42.756676757887483	3.3650234389942386	0	0
43.892054832416882	3.4543796313509509	0	0
45.027432906946281	3.5437358237076633	0	0
46.16281098147568	3.6330920160643756	0	0
47.298189056005072	3.7224482084210879	0	0
48.433567130534463	3.8118044007777998	0	0
49.568945205063862	3.9011605931345126	0	0
50.704323279593261	3.9905167854912249	0	0
51.839701354122653	4.0798729778479368	0	0
31.327439704100609	3.2926465929310846	0	0
32.460089640492249	3.4116928983192452	0	0
33.592739576883901	3.5307392037074066	0	0
34.725389513275537	3.6497855090955671	0	0
35.858039449667189	3.7688318144837285	0	0
36.990689386058833	3.887878119871889	0	0
38.123339322450477	4.0069244252600509	0	0
39.255989258842121	4.125970730648211	0	0
40.388639195233772	4.2450170360363728	0	0
41.521289131625409	4.3640633414245329	0	0
42.653939068017053	4.4831096468126939	0	0
43.786589004408697	4.6021559522008548	0	0
44.919238940800341	4.7212022575890158	0	0
46.051888877191992	4.8402485629771768	0	0
47.184538813583629	4.9592948683653377	0	0
48.317188749975273	5.0783411737534978	0	0
49.449838686366924	5.1973874791416597	0	0
50.582488622758568	5.3164337845298206	0	0
51.715138559150212	5.4354800899179816	0	0
31.230513133275029	4.1115750549316248	0	0
32.359658669839639	4.2602298849600162	0	0
33.488804206404261	4.4088847149884085	0	0
34.617949742968875	4.5575395450168008	0	0
35.747095279533497	4.7061943750451931	0	0
36.876240816098111	4.8548492050735845	0	0
38.005386352662732	5.0035040351019777	0	0
39.134531889227347	5.1521588651303691	0	0
40.263677425791968	5.3008136951587614	0	0
41.392822962356583	5.4494685251871529	0	0
42.521968498921197	5.5981233552155452	0	0
43.651114035485818	5.7467781852439375	0	0
44.780259572050433	5.8954330152723289	0	0
45.909405108615054	6.0440878453007221	0	0
47.038550645179669	6.1927426753291135	0	0
48.167696181744283	6.3413975053575049	0	0
49.296841718308904	6.4900523353858972	0	0
50.425987254873526	6.6387071654142904	0	0
51.55513279143814	6.7873619954426818	0	0
31.112182728746841	4.9276856487672722	0	0
32.237050005535743	5.1058471228408679	0	0
33.361917282324654	5.2840085969144654	0	0
34.486784559113559	5.4621700709880612	0	0
35.611651835902471	5.6403315450616578	0	0
36.736519112691376	5.8184930191352535	0	0
37.86138638948028	5.9966544932088501	0	0
38.986253666269185	6.1748159672824459	0	0
40.111120943058097	6.3529774413560434	0	0
41.235988219847002	6.5311389154296391	0	0
42.360855496635907	6.7093003895032348	0	0
43.485722773424818	6.8874618635768314	0	0
44.610590050213723	7.0656233376504272	0	0
45.735457327002628	7.2437848117240238	0	0
46.860324603791533	7.4219462857976195	0	0
47.985191880580437	7.6001077598712152	0	0
49.110059157369349	7.7782692339448127	0	0
50.234926434158261	7.9564307080184093	0	0
51.359793710947166	8.1345921820920051	0	0
30.972529588264571	5.7404190530026451	0	0
32.092347677434624	5.9479650681464795	0	0
33.212165766604691	6.1555110832903148	0	0
34.331983855774745	6.3630570984341484	0	0
35.451801944944812	6.5706031135779845	0	0
36.571620034114865	6.7781491287218181	0	0
37.691438123284932	6.9856951438656534	0	0
38.811256212454985	7.1932411590094878	0	0
39.931074301625046	7.4007871741533231	0	0
41.050892390795106	7.6083331892971566	0	0
42.170710479965159	7.815879204440991	0	0
43.290528569135226	8.0234252195848264	0	0
44.410346658305279	8.2309712347286599	0	0
45.530164747475347	8.4385172498724952	0	0
46.6499828366454	8.6460632650163305	0	0
47.76980092581546	8.853609280160164	0	0
48.88961901498552	9.0611552953039993	0	0
50.00943710415558	9.2687013104478346	0	0
51.129255193325641	9.4762473255916682	0	0
30.811649423114879	6.5492182607594192	0	0
31.925650857283934	6.786006575301867	0	0
33.039652291452995	7.0227948898443158	0	0
34.15365372562205	7.2595832043867636	0	0
35.267655159791104	7.4963715189292124	0	0
36.381656593960159	7.7331598334716594	0	0
37.49565802812922	7.969948148014109	0	0
38.609659462298275	8.206736462556556	0	0
39.723660896467337	8.4435247770990056	0	0
40.837662330636391	8.6803130916414517	0	0
41.951663764805438	8.9171014061838996	0	0
43.0656651989745	9.1538897207263492	0	0
44.179666633143555	9.3906780352687971	0	0
45.293668067312616	9.6274663498112449	0	0
46.407669501481671	9.8642546643536928	0	0
47.521670935650725	10.101042978896141	0	0
48.63567236981978	10.337831293438589	0	0
49.749673803988841	10.574619607981038	0	0
50.863675238157896	10.811407922523486	0	0
30.629652492526812	7.3535289614610209	0	0
31.737073790757496	7.6193972925191344	0	0
32.844495088988189	7.8852656235772498	0	0
33.951916387218873	8.1511339546353643	0	0
35.059337685449563	8.4170022856934796	0	0
36.166758983680246	8.6828706167515932	0	0
37.274180281910937	8.9487389478097086	0	0
38.38160158014162	9.2146072788678222	0	0
39.48902287837231	9.4804756099259375	0	0
40.596444176602994	9.7463439409840511	0	0
41.703865474833684	10.012212272042165	0	0
42.811286773064374	10.27808060310028	0	0
43.918708071295057	10.543948934158394	0	0
45.026129369525748	10.809817265216509	0	0
46.133550667756431	11.075685596274623	0	0
47.240971965987114	11.341553927332738	0	0
48.348393264217805	11.607422258390853	0	0
49.455814562448495	11.873290589448969	0	0
50.563235860679178	12.139158920507082	0	0
30.426663528105653	8.1527999207294037	0	0
31.526745719157088	8.4475660554294958	0	0
32.626827910208533	8.7423321901295896	0	0
33.726910101259968	9.0370983248296817	0	0
34.826992292311409	9.3318644595297755	0	0
35.927074483362844	9.6266305942298676	0	0
37.027156674414286	9.9213967289299632	0	0
38.127238865465721	10.216162863630055	0	0
39.227321056517169	10.510928998330149	0	0
40.327403247568604	10.805695133030241	0	0
41.427485438620039	11.100461267730333	0	0
42.527567629671481	11.395227402430427	0	0
43.627649820722915	11.689993537130519	0	0
44.727732011774357	11.984759671830613	0	0
45.827814202825792	12.279525806530705	0	0
46.927896393877234	12.574291941230799	0	0
48.027978584928675	12.869058075930893	0	0
49.128060775980117	13.163824210630986	0	0
50.228142967031552	13.458590345331078	0	0
31.7273428612503	0.16612549689576236	0	0
32.410666827619373	0.16970340551389906	0	0
32.404002818845825	0.67876709777502497	0	0
31.720819351804682	0.66445644418806438	0	0
32.866216138532096	0.17208867792599022	0	0
33.549540104901162	0.17566658654412692	0	0
33.542641930581063	0.70261818708662582	0	0
32.859458463539923	0.68830753349966534	0	0
34.005089415813885	0.17805185895621806	0	0
34.688413382182958	0.18162976757435478	0	0
34.681281042316307	0.72646927639822689	0	0
33.99809757527516	0.7121586228112663	0	0
35.143962693095673	0.18401503998644592	0	0
35.827286659464747	0.18759294860458262	0	0
35.819920154051545	0.75032036570982785	0	0
35.136736687010405	0.73600971212286737	0	0
36.282835970377462	0.18997822101667378	0	0
36.966159936746543	0.1935561296348105	0	0
36.958559265786789	0.77417145502142892	0	0
36.275375798745642	0.75986080143446821	0	0
37.421709247659258	0.19594140204690164	0	0
38.105033214028332	0.19951931066503834	0	0
38.097198377522027	0.79802254433302977	0	0
37.414014910480887	0.78371189074606928	0	0
38.560582524941047	0.2019045830771295	0	0
39.243906491310128	0.20548249169526622	0	0
39.235837489257271	0.82187363364463084	0	0
38.552654022216124	0.80756298005767024	0	0
39.699455802222843	0.20786776410735736	0	0
40.382779768591917	0.21144567272549405	0	0
40.374476600992509	0.8457247229562318	0	0
39.691293133951369	0.83141406936927131	0	0
40.838329079504632	0.21383094513758519	0	0
41.521653045873713	0.21740885375572194	0	0
41.513115712727753	0.86957581226783287	0	0
40.829932245686607	0.85526515868087216	0	0
41.977202356786421	0.21979412616781305	0	0
42.660526323155501	0.22337203478594977	0	0
42.651754824462991	0.89342690157943372	0	0
41.968571357421844	0.87911624799247312	0	0
43.116075634068217	0.22575730719804091	0	0
43.79939960043729	0.22933521581617761	0	0
43.790393936198228	0.91727799089103468	0	0
43.107210469157089	0.90296733730407419	0	0
44.254948911350006	0.23172048822826874	0	0
44.938272877719086	0.23529839684640549	0	0
44.929033047933473	0.94112908020263575	0	0
44.245849580892326	0.92681842661567504	0	0
45.393822188631802	0.23768366925849663	0	0
46.077146155000875	0.24126157787663333	0	0
46.06767215966871	0.9649801695142366	0	0
45.384488692627571	0.95066951592727611	0	0
46.532695465913591	0.24364685028872446	0	0
47.216019432282671	0.24722475890686121	0	0
47.206311271403955	0.98883125882583767	0	0
46.523127804362808	0.97452060523887707	0	0
47.67156874319538	0.24961003131895232	0	0
48.354892709564453	0.25318793993708905	0	0
48.344950383139192	1.0126823481374385	0	0
47.661766916098045	0.99837169455047792	0	0
48.810442020477176	0.25557321234918018	0	0
49.493765986846242	0.25915112096731691	0	0
49.48358949487443	1.0365334374490396	0	0
48.80040602783329	1.022222783862079	0	0
49.949315297758972	0.26153639337940804	0	0
50.632639264128038	0.26511430199754477	0	0
50.622228606609674	1.0603845267606407	0	0
49.939045139568535	1.0460738731736801	0	0
51.08818857504076	0.2674995744096359	0	0
51.771512541409834	0.27107748302777263	0	0
51.760867718344919	1.0842356160722417	0	0
51.077684251303772	1.0699249624852809	0	0
31.712122034714962	0.99659358386217067	0	0
32.395118184298212	1.0180576025655583	0	0
32.375130725156296	1.5267724080003073	0	0
31.692555977265616	1.4945830000153848	0	0
32.850448950687046	1.0323669483678168	0	0
33.533445100270292	1.0538309670712043	0	0
33.512755304974092	1.5804214213085113	0	0
32.830180557083416	1.548232013323589	0	0
33.988775866659125	1.0681403128734628	0	0
34.671772016242379	1.0896043315768507	0	0
34.650379884791896	1.6340704346167156	0	0
33.967805136901212	1.6018810266317929	0	0
35.127102782631212	1.1039136773791089	0	0
35.810098932214459	1.1253776960824966	0	0
35.788004464609692	1.6877194479249196	0	0
35.105429716719016	1.6555300399399973	0	0
36.265429698603292	1.1396870418847551	0	0
36.948425848186545	1.1611510605881428	0	0
36.925629044427495	1.7413684612331239	0	0
36.243054296536812	1.7091790532482012	0	0
37.403756614575379	1.1754604063904013	0	0
38.086752764158625	1.1969244250937889	0	0
38.063253624245291	1.7950174745413279	0	0
37.380678876354615	1.7628280665564056	0	0
38.542083530547458	1.2112337708960472	0	0
39.225079680130712	1.2326977895994351	0	0
39.200878204063095	1.8486664878495322	0	0
38.518303456172411	1.8164770798646097	0	0
39.680410446519545	1.2470071354016936	0	0
40.363406596102791	1.268471154105081	0	0
40.338502783880891	1.9023155011577362	0	0
39.655928035990215	1.8701260931728139	0	0
40.818737362491625	1.2827804999073396	0	0
41.501733512074878	1.3042445186107274	0	0
41.476127363698694	1.9559645144659406	0	0
40.793552615808011	1.923775106481018	0	0
41.957064278463704	1.3185538644129855	0	0
42.640060428046958	1.3400178831163734	0	0
42.61375194351649	2.0096135277741447	0	0
41.931177195625807	1.9774241197892219	0	0
43.095391194435791	1.3543272289186319	0	0
43.778387344019045	1.3757912476220193	0	0
43.751376523334287	2.0632625410823486	0	0
43.06880177544361	2.0310731330974261	0	0
44.233718110407878	1.3901005934242778	0	0
44.916714259991132	1.4115646121276657	0	0
44.88900110315209	2.116911554390553	0	0
44.206426355261407	2.0847221464056305	0	0
45.372045026379965	1.425873957929924	0	0
46.055041175963211	1.4473379766333117	0	0
46.026625682969886	2.1705605676987569	0	0
45.34405093507921	2.1383711597138344	0	0
46.510371942352045	1.4616473224355702	0	0
47.193368091935298	1.4831113411389578	0	0
47.164250262787689	2.2242095810069613	0	0
46.481675514897006	2.1920201730220388	0	0
47.648698858324124	1.4974206869412161	0	0
48.331695007907378	1.518884705644604	0	0
48.301874842605486	2.2778585943151652	0	0
47.619300094714802	2.2456691863302427	0	0
48.787025774296211	1.5331940514468623	0	0
49.470021923879457	1.5546580701502499	0	0
49.439499422423275	2.3315076076233692	0	0
48.756924674532605	2.2993181996384471	0	0
49.925352690268298	1.5689674159525087	0	0
50.608348839851544	1.5904314346558961	0	0
50.577124002241078	2.3851566209315735	0	0
49.894549254350402	2.3529672129466515	0	0
51.063679606240377	1.6047407804581546	0	0
51.746675755823631	1.6262047991615425	0	0
51.714748582058881	2.4388056342397779	0	0
51.032173834168198	2.4066162262548554	0	0
31.675167303792865	1.8263786553671595	0	0
32.357367545145785	1.8657140737895306	0	0
32.3240703340416	2.3737313446811292	0	0
31.642572107938225	2.3236852433105808	0	0
32.812167706047731	1.8919376860711112	0	0
33.494367947400647	1.9312731044934819	0	0